13
Coordinates from ORCA-job HfCO6-2 E -727.168162317640
  Hf     -0.437330      0.821140     -0.003270
  C       1.850690      0.751790     -0.210430
  C      -0.367130      3.118510      0.000020
  C      -2.725380      0.890990      0.203880
  C      -0.507430     -1.476230     -0.006560
  O      -0.332670      4.245990      0.001630
  O       2.973680      0.717830     -0.311460
  O      -0.541800     -2.603700     -0.008170
  O      -3.848280      0.925360      0.304890
  C      -0.648180      0.830670     -2.292020
  C      -0.226600      0.811110      2.285460
  O      -0.752320      0.835290     -3.415170
  O      -0.122550      0.806080      3.408660
13
Coordinates from ORCA-job HfCO6-2 E -727.200871939441
  Hf     -0.437336      0.821142     -0.003267
  C       1.798553      0.753498     -0.206000
  C      -0.368681      3.066374     -0.000008
  C      -2.673253      0.889278      0.199459
  C      -0.505899     -1.424097     -0.006522
  O      -0.332801      4.232265      0.001669
  O       2.959783      0.718415     -0.310532
  O      -0.541526     -2.589992     -0.008238
  O      -3.834447      0.924787      0.303980
  C      -0.643209      0.830390     -2.240230
  C      -0.231589      0.811403      2.233680
  O      -0.750701      0.835136     -3.401700
  O      -0.124194      0.806233      3.395170
13
Coordinates from ORCA-job HfCO6-2 E -727.202559960655
  Hf     -0.437373      0.821141     -0.003266
  C       1.792389      0.753692     -0.205925
  C      -0.368960      3.060155     -0.000011
  C      -2.667106      0.889091      0.199385
  C      -0.505612     -1.417875     -0.006537
  O      -0.332561      4.236799      0.001677
  O       2.964315      0.718224     -0.311586
  O      -0.541572     -2.594531     -0.008309
  O      -3.839012      0.924994      0.305043
  C      -0.642300      0.830326     -2.233930
  C      -0.232557      0.811459      2.227419
  O      -0.750416      0.835103     -3.406154
  O      -0.124536      0.806251      3.399655
13
Coordinates from ORCA-job HfCO6-2 E -727.202588433556
  Hf     -0.437391      0.821143     -0.003256
  C       1.786674      0.753829     -0.205768
  C      -0.369203      3.054659     -0.000021
  C      -2.661479      0.888965      0.199260
  C      -0.505292     -1.412384     -0.006537
  O      -0.332674      4.232591      0.001660
  O       2.959865      0.718235     -0.311713
  O      -0.541262     -2.590333     -0.008336
  O      -3.834656      0.924998      0.305205
  C      -0.641560      0.830289     -2.228707
  C      -0.233334      0.811493      2.222187
  O      -0.749470      0.835068     -3.402253
  O      -0.125521      0.806277      3.395740
13
Coordinates from ORCA-job HfCO6-2 E -727.202593440099
  Hf     -0.437413      0.821144     -0.003254
  C       1.789963      0.753704     -0.206307
  C      -0.369160      3.057861     -0.000026
  C      -2.664792      0.889097      0.199806
  C      -0.505288     -1.415585     -0.006552
  O      -0.332561      4.236317      0.001649
  O       2.963665      0.718029     -0.312428
  O      -0.541252     -2.594061     -0.008366
  O      -3.838480      0.925213      0.305931
  C      -0.641678      0.830292     -2.231708
  C      -0.233265      0.811484      2.225208
  O      -0.749408      0.835072     -3.405796
  O      -0.125632      0.806264      3.399302
13
Coordinates from ORCA-job HfCO6-2 E -727.202595866891
  Hf     -0.437424      0.821144     -0.003253
  C       1.789369      0.753712     -0.206362
  C      -0.369198      3.057327     -0.000035
  C      -2.664208      0.889091      0.199868
  C      -0.505216     -1.415051     -0.006558
  O      -0.332589      4.235425      0.001637
  O       2.962707      0.718008     -0.312531
  O      -0.541158     -2.593170     -0.008378
  O      -3.837531      0.925237      0.306045
  C      -0.641566      0.830286     -2.231242
  C      -0.233410      0.811488      2.224752
  O      -0.749141      0.835066     -3.404986
  O      -0.125936      0.806267      3.398504
