13
Coordinates from ORCA-job HfCO6 E -727.167645752376
  Hf     -0.437330      0.821140     -0.003270
  C       1.850690      0.751790     -0.210430
  C      -0.367130      3.118510      0.000020
  C      -2.725380      0.890990      0.203880
  C      -0.507430     -1.476230     -0.006560
  O      -0.332670      4.245990      0.001630
  O       2.973680      0.717830     -0.311460
  O      -0.541800     -2.603700     -0.008170
  O      -3.848280      0.925360      0.304890
  C      -0.648180      0.830670     -2.292020
  C      -0.226600      0.811110      2.285460
  O      -0.752320      0.835290     -3.415170
  O      -0.122550      0.806080      3.408660
13
Coordinates from ORCA-job HfCO6 E -727.175434636629
  Hf     -0.437203      0.821136     -0.003158
  C       1.842077      0.794458     -0.167076
  C      -0.328732      3.104177     -0.046360
  C      -2.716547      0.848255      0.160863
  C      -0.545588     -1.461926      0.040038
  O      -0.276460      4.246357     -0.067256
  O       2.982519      0.780631     -0.250601
  O      -0.599507     -2.604055      0.059346
  O      -3.856965      0.862476      0.244418
  C      -0.687478      0.874309     -2.274729
  C      -0.186942      0.767542      2.268349
  O      -0.810934      0.900231     -3.411330
  O      -0.063537      0.741239      3.404957
13
Coordinates from ORCA-job HfCO6 E -727.179361117942
  Hf     -0.436997      0.821122     -0.002965
  C       1.851138      0.863050     -0.098231
  C      -0.266696      3.101749     -0.121066
  C      -2.725022      0.779629      0.092480
  C      -0.608296     -1.459482      0.114143
  O      -0.183747      4.248240     -0.179311
  O       3.000864      0.883280     -0.148775
  O      -0.693921     -2.605908      0.169799
  O      -3.874768      0.759787      0.143113
  C      -0.753828      0.944687     -2.267655
  C      -0.120094      0.697175      2.261806
  O      -0.909687      1.005782     -3.406412
  O       0.035753      0.635720      3.400536
13
Coordinates from ORCA-job HfCO6 E -727.181837401502
  Hf     -0.437004      0.821115     -0.002957
  C       1.828265      0.962894      0.004261
  C      -0.178901      3.063634     -0.227905
  C      -2.702208      0.679765     -0.009923
  C      -0.697131     -1.421406      0.219969
  O      -0.047488      4.203591     -0.341815
  O       2.979200      1.034531      0.007713
  O      -0.829026     -2.561385      0.333156
  O      -3.853212      0.608508     -0.013235
  C      -0.847008      1.045773     -2.222971
  C      -0.026896      0.596170      2.217102
  O      -1.053665      1.159553     -3.351754
  O       0.179773      0.482087      3.345820
13
Coordinates from ORCA-job HfCO6 E -727.182563065269
  Hf     -0.437503      0.821129     -0.003398
  C       1.846430      0.991191      0.030513
  C      -0.153284      3.076300     -0.258108
  C      -2.721583      0.651606     -0.037041
  C      -0.722774     -1.434075      0.250108
  O      -0.005019      4.209025     -0.387619
  O       2.992682      1.077610      0.053501
  O      -0.866530     -2.566952      0.383340
  O      -3.867900      0.565626     -0.059882
  C      -0.876370      1.075638     -2.236939
  C       0.001449      0.566226      2.229995
  O      -1.100520      1.204471     -3.357246
  O       0.225623      0.437036      3.350236
13
Coordinates from ORCA-job HfCO6 E -727.182846301793
  Hf     -0.438192      0.821165     -0.004009
  C       1.841497      0.980939      0.018754
  C      -0.162914      3.074083     -0.246072
  C      -2.718195      0.661932     -0.026473
  C      -0.712293     -1.431794      0.238894
  O      -0.014370      4.204056     -0.371594
  O       2.984807      1.064180      0.042352
  O      -0.851658     -2.562026      0.372329
  O      -3.861538      0.579149     -0.049918
  C      -0.865743      1.065359     -2.236113
  C      -0.010509      0.576438      2.227741
  O      -1.089939      1.190895     -3.353514
  O       0.213749      0.450454      3.345082
13
Coordinates from ORCA-job HfCO6 E -727.182907605452
  Hf     -0.439003      0.821222     -0.004726
  C       1.837908      0.984667      0.021841
  C      -0.159397      3.071250     -0.249119
  C      -2.716393      0.658009     -0.030939
  C      -0.714586     -1.428880      0.243151
  O      -0.003594      4.199165     -0.378713
  O       2.980057      1.072242      0.053728
  O      -0.856397     -2.557162      0.385004
  O      -3.858547      0.570764     -0.062645
  C      -0.869534      1.069502     -2.232841
  C      -0.008212      0.572496      2.222809
  O      -1.101257      1.199538     -3.347503
  O       0.223654      0.442016      3.337413
13
Coordinates from ORCA-job HfCO6 E -727.182988931469
  Hf     -0.440430      0.821336     -0.005986
  C       1.834845      0.985707      0.022313
  C      -0.157369      3.070338     -0.249037
  C      -2.716338      0.656188     -0.033979
  C      -0.714122     -1.427779      0.245555
  O       0.008632      4.195948     -0.383599
  O       2.975898      1.078813      0.065878
  O      -0.858556     -2.553906      0.399282
  O      -3.857330      0.562949     -0.077341
  C      -0.872544      1.071962     -2.233032
  C      -0.007868      0.570792      2.220238
  O      -1.114913      1.207977     -3.344440
  O       0.234795      0.434505      3.331608
13
Coordinates from ORCA-job HfCO6 E -727.183070701849
  Hf     -0.442146      0.821494     -0.007484
  C       1.833668      0.986665      0.023782
  C      -0.154131      3.070671     -0.249291
  C      -2.718536      0.653358     -0.038863
  C      -0.713931     -1.427860      0.249275
  O       0.024957      4.193606     -0.391872
  O       2.973679      1.088293      0.082370
  O      -0.863372     -2.551445      0.418445
  O      -3.858373      0.550529     -0.097305
  C      -0.877370      1.075495     -2.233414
  C      -0.006417      0.569093      2.217603
  O      -1.133494      1.220947     -3.340861
  O       0.250166      0.423985      3.325075
13
Coordinates from ORCA-job HfCO6 E -727.183095953994
  Hf     -0.442314      0.821526     -0.007620
  C       1.833531      0.985765      0.024426
  C      -0.153358      3.071382     -0.249375
  C      -2.718494      0.652873     -0.040298
  C      -0.713860     -1.428514      0.250211
  O       0.028681      4.193679     -0.395926
  O       2.973344      1.091123      0.086586
  O      -0.866437     -2.551434      0.423290
  O      -3.858064      0.545521     -0.102414
  C      -0.879129      1.076539     -2.234922
  C      -0.005265      0.569425      2.219163
  O      -1.138465      1.226378     -3.341458
  O       0.254530      0.420567      3.325798
13
Coordinates from ORCA-job HfCO6 E -727.183115957300
  Hf     -0.441822      0.821510     -0.007176
  C       1.835784      0.984615      0.025362
  C      -0.152968      3.071997     -0.249997
  C      -2.719364      0.652555     -0.041016
  C      -0.714412     -1.429153      0.250697
  O       0.029415      4.193912     -0.401129
  O       2.975509      1.093901      0.088168
  O      -0.871249     -2.551596      0.424899
  O      -3.858773      0.540366     -0.103899
  C      -0.879723      1.076939     -2.234123
  C      -0.004188      0.570511      2.219796
  O      -1.139536      1.231395     -3.340209
  O       0.256026      0.417876      3.326086
13
Coordinates from ORCA-job HfCO6 E -727.183132896926
  Hf     -0.440611      0.821439     -0.006119
  C       1.837038      0.983704      0.026999
  C      -0.152514      3.071900     -0.252107
  C      -2.717720      0.652151     -0.041246
  C      -0.716173     -1.429123      0.251530
  O       0.028462      4.193245     -0.409940
  O       2.976383      1.098496      0.088722
  O      -0.879528     -2.550807      0.425445
  O      -3.856672      0.533496     -0.103154
  C      -0.880007      1.077806     -2.233567
  C      -0.002134      0.570965      2.222067
  O      -1.138480      1.238478     -3.339276
  O       0.256656      0.413079      3.328106
13
Coordinates from ORCA-job HfCO6 E -727.183143374451
  Hf     -0.438921      0.821325     -0.004672
  C       1.839157      0.983871      0.028430
  C      -0.152296      3.071111     -0.255184
  C      -2.716149      0.651921     -0.039982
  C      -0.718809     -1.428498      0.252243
  O       0.026060      4.191676     -0.420559
  O       2.977869      1.104847      0.087733
  O      -0.889657     -2.549172      0.424729
  O      -3.854440      0.526653     -0.099443
  C      -0.878460      1.078227     -2.231225
  C      -0.000728      0.570648      2.223108
  O      -1.134189      1.245313     -3.336506
  O       0.255262      0.406908      3.328789
13
Coordinates from ORCA-job HfCO6 E -727.183145145040
  Hf     -0.437940      0.821241     -0.003855
  C       1.839465      0.985392      0.028698
  C      -0.152240      3.070161     -0.257491
  C      -2.714644      0.651990     -0.037986
  C      -0.720725     -1.427662      0.252691
  O       0.024436      4.190276     -0.426473
  O       2.977714      1.109415      0.086377
  O      -0.895147     -2.547764      0.424122
  O      -3.852534      0.524269     -0.095651
  C      -0.876392      1.078306     -2.230248
  C      -0.000593      0.568986      2.223593
  O      -1.130244      1.247888     -3.335371
  O       0.253544      0.402331      3.329053
13
Coordinates from ORCA-job HfCO6 E -727.183145529370
  Hf     -0.437616      0.821204     -0.003596
  C       1.839506      0.987013      0.028284
  C      -0.152261      3.069713     -0.258630
  C      -2.714330      0.652210     -0.036257
  C      -0.721633     -1.427285      0.252885
  O       0.023826      4.189725     -0.428464
  O       2.977599      1.111874      0.085352
  O      -0.896843     -2.547254      0.423929
  O      -3.852148      0.524545     -0.093160
  C      -0.874639      1.078092     -2.229982
  C      -0.001214      0.567362      2.223423
  O      -1.127778      1.247778     -3.335132
  O       0.252231      0.399852      3.328808
