!B3LYP def2-SVPD OPT FREQ TightSCF PAL8

%scf
  MaxIter 300
end

* xyz -1 1 
O         -1.11634        3.48152        0.48558
O         -4.51866        0.52355       -0.57545
C         -1.17349        2.37455        0.27643
C         -3.40501        0.43512       -0.41945
Mo        -1.28303        0.26611       -0.12169
C         -1.61319       -0.11095        1.96743
O         -1.78639       -0.30902        3.06430
N         -0.95501        0.64028       -2.15648
C          0.83693        0.09688        0.18256
C         -1.39357       -1.84568       -0.50896
O          1.95003        0.00770        0.34200
O         -1.45208       -2.95363       -0.71232
O         -1.54099        0.01667       -2.98763
*