13
Coordinates from ORCA-job OsCO6 E -769.824868844652
  Os     -0.375190      0.918360      0.036640
  C       1.701670      0.955800      0.040210
  C      -0.412860      2.994880      0.074590
  C      -2.451970      0.879820      0.033050
  C      -0.338380     -1.158100     -0.001380
  O      -0.433340      4.122460      0.094830
  O       2.829470      0.976060      0.042110
  O      -0.318810     -2.285800     -0.021710
  O      -3.579790      0.858420      0.031120
  C      -0.371840      0.958350     -2.040130
  C      -0.377820      0.879480      2.113450
  O      -0.369830      0.980670     -3.167920
  O      -0.379120      0.858290      3.241250
13
Coordinates from ORCA-job OsCO6 E -769.840481868403
  Os     -0.373704      0.919862      0.039693
  C       1.643774      0.974328      0.028479
  C      -0.392581      2.938617      0.056392
  C      -2.391120      0.864763      0.050870
  C      -0.355407     -1.098826      0.022930
  O      -0.396069      4.086845      0.038292
  O       2.791200      1.012892     -0.004337
  O      -0.372318     -2.247110      0.020925
  O      -3.538105      0.805940      0.063882
  C      -0.351511      0.974491     -1.978000
  C      -0.395504      0.865793      2.057479
  O      -0.332060      1.033566     -3.124801
  O      -0.414403      0.807528      3.204305
13
Coordinates from ORCA-job OsCO6 E -769.843875770029
  Os     -0.369986      0.922974      0.046851
  C       1.651370      0.998306      0.011775
  C      -0.369996      2.952370      0.026632
  C      -2.392082      0.838475      0.071768
  C      -0.381264     -1.105962      0.057148
  O      -0.351337      4.105870     -0.046623
  O       2.804345      1.059986     -0.062611
  O      -0.446438     -2.259800      0.082096
  O      -3.543807      0.732579      0.102737
  C      -0.324864      1.004968     -1.978595
  C      -0.414675      0.841242      2.071667
  O      -0.282519      1.114615     -3.128973
  O      -0.456558      0.733067      3.222238
13
Coordinates from ORCA-job OsCO6 E -769.846769694990
  Os     -0.362866      0.926193      0.058171
  C       1.647229      1.030906     -0.011535
  C      -0.341154      2.954979     -0.019918
  C      -2.378404      0.799690      0.099883
  C      -0.420674     -1.098406      0.110097
  O      -0.286285      4.099311     -0.187093
  O       2.795545      1.130113     -0.143503
  O      -0.561364     -2.245183      0.182947
  O      -3.523551      0.624295      0.160504
  C      -0.286994      1.052621     -1.963685
  C      -0.436498      0.802566      2.076372
  O      -0.207872      1.247515     -3.103054
  O      -0.514922      0.614090      3.216924
13
Coordinates from ORCA-job OsCO6 E -769.848139143785
  Os     -0.357821      0.923642      0.062416
  C       1.648211      1.051958     -0.029112
  C      -0.325013      2.957426     -0.041899
  C      -2.379030      0.778123      0.116885
  C      -0.443052     -1.093019      0.140284
  O      -0.239644      4.085271     -0.277140
  O       2.786423      1.180451     -0.190967
  O      -0.630759     -2.227323      0.251658
  O      -3.511697      0.559351      0.203728
  C      -0.264639      1.076306     -1.959816
  C      -0.448562      0.777286      2.078244
  O      -0.157595      1.332438     -3.082021
  O      -0.554632      0.536779      3.203849
13
Coordinates from ORCA-job OsCO6 E -769.848961813239
  Os     -0.353460      0.916064      0.062965
  C       1.641576      1.059757     -0.042266
  C      -0.321516      2.965287     -0.041234
  C      -2.380305      0.775401      0.118309
  C      -0.452391     -1.090494      0.152925
  O      -0.214902      4.078919     -0.320630
  O       2.773631      1.204965     -0.207242
  O      -0.654285     -2.217562      0.287577
  O      -3.503299      0.534840      0.222967
  C      -0.257265      1.079404     -1.960488
  C      -0.449672      0.762125      2.078440
  O      -0.134265      1.370297     -3.069924
  O      -0.571659      0.499687      3.194711
13
Coordinates from ORCA-job OsCO6 E -769.852106289738
  Os     -0.338965      0.882611      0.060072
  C       1.619141      1.078856     -0.087880
  C      -0.323815      2.995216     -0.016698
  C      -2.395432      0.785544      0.104707
  C      -0.476260     -1.080542      0.187509
  O      -0.144859      4.045222     -0.437916
  O       2.734436      1.270098     -0.232711
  O      -0.692140     -2.186498      0.390735
  O      -3.484010      0.486834      0.269214
  C      -0.246386      1.076331     -1.966145
  C      -0.441727      0.714159      2.073122
  O      -0.078251      1.468203     -3.028574
  O      -0.609543      0.402656      3.160675
13
Coordinates from ORCA-job OsCO6 E -769.854115521872
  Os     -0.327433      0.844989      0.051350
  C       1.598777      1.091667     -0.127783
  C      -0.341503      3.025422      0.028789
  C      -2.413757      0.818216      0.076786
  C      -0.489361     -1.080229      0.204354
  O      -0.094559      3.993362     -0.513297
  O       2.698533      1.315572     -0.224584
  O      -0.685203     -2.169456      0.458593
  O      -3.465768      0.483029      0.299652
  C      -0.251860      1.058694     -1.976396
  C      -0.426256      0.680165      2.062232
  O      -0.050156      1.526472     -2.990077
  O      -0.629264      0.350788      3.126491
13
Coordinates from ORCA-job OsCO6 E -769.857569280641
  Os     -0.335441      0.817257      0.036534
  C       1.616617      1.060187     -0.102383
  C      -0.404907      3.015489      0.136806
  C      -2.425554      0.922188      0.019794
  C      -0.458864     -1.135471      0.133640
  O      -0.173396      3.982206     -0.399462
  O       2.716577      1.243545     -0.064979
  O      -0.516507     -2.244319      0.327644
  O      -3.486795      0.647533      0.225074
  C      -0.322555      0.989361     -1.990764
  C      -0.383352      0.731559      2.046397
  O      -0.163600      1.391765     -3.029050
  O      -0.540034      0.517388      3.136859
13
Coordinates from ORCA-job OsCO6 E -769.868355138369
  Os     -0.335295      0.782159      0.032333
  C       1.604882      1.057488     -0.084526
  C      -0.422824      3.069305      0.166354
  C      -2.450932      0.942886      0.020130
  C      -0.465928     -1.165634      0.098754
  O      -0.132210      3.955963     -0.474895
  O       2.702529      1.255492      0.015754
  O      -0.484922     -2.274919      0.300261
  O      -3.499399      0.647587      0.274262
  C      -0.343282      0.979833     -1.993040
  C      -0.360227      0.729701      2.020262
  O      -0.165092      1.415598     -3.013263
  O      -0.525109      0.543229      3.113727
13
Coordinates from ORCA-job OsCO6 E -769.887330855146
  Os     -0.352422      0.752083      0.024896
  C       1.597794      1.042818      0.006357
  C      -0.419032      3.134830      0.154847
  C      -2.475572      0.918241      0.067699
  C      -0.477753     -1.209398      0.011630
  O      -0.086758      3.989419     -0.558720
  O       2.736189      1.242843      0.157679
  O      -0.443722     -2.351713      0.170415
  O      -3.564867      0.630158      0.352304
  C      -0.365382      1.005107     -1.991888
  C      -0.347609      0.744527      2.000758
  O      -0.195187      1.393585     -3.060045
  O      -0.483489      0.646189      3.140176
13
Coordinates from ORCA-job OsCO6 E -769.899200010251
  Os     -0.356264      0.705983      0.016662
  C       1.574786      1.032791      0.031987
  C      -0.442729      3.207406      0.192672
  C      -2.480526      0.935386      0.066479
  C      -0.490712     -1.235585     -0.028603
  O      -0.068087      3.965380     -0.599001
  O       2.697952      1.233526      0.242611
  O      -0.390957     -2.372489      0.106580
  O      -3.558383      0.654589      0.375971
  C      -0.380930      0.995849     -1.983983
  C      -0.325466      0.739800      1.983282
  O      -0.212019      1.370867     -3.052266
  O      -0.444475      0.705189      3.123720
13
Coordinates from ORCA-job OsCO6 E -769.911598950610
  Os     -0.367576      0.665594      0.013303
  C       1.544495      1.024088      0.060599
  C      -0.451964      3.297312      0.208968
  C      -2.469330      0.918877      0.080598
  C      -0.504575     -1.268699     -0.051851
  O      -0.055287      3.984714     -0.621191
  O       2.657210      1.220476      0.273780
  O      -0.347201     -2.399235      0.041261
  O      -3.547489      0.683809      0.381194
  C      -0.373593      1.006650     -1.963496
  C      -0.324716      0.724846      1.981731
  O      -0.222829      1.325552     -3.048950
  O      -0.414953      0.754707      3.120163
13
Coordinates from ORCA-job OsCO6 E -769.922090443181
  Os     -0.381679      0.625681      0.012229
  C       1.522423      1.016497      0.092098
  C      -0.462024      3.389817      0.217712
  C      -2.450882      0.894143      0.106602
  C      -0.507995     -1.314335     -0.078154
  O      -0.043871      4.011551     -0.645258
  O       2.636997      1.217227      0.281703
  O      -0.309222     -2.441800     -0.026280
  O      -3.540951      0.727594      0.394791
  C      -0.363083      1.015719     -1.942488
  C      -0.338847      0.714959      1.985147
  O      -0.229755      1.284889     -3.044853
  O      -0.408922      0.796749      3.122862
13
Coordinates from ORCA-job OsCO6 E -769.931050794543
  Os     -0.395807      0.585834      0.020078
  C       1.507290      1.004305      0.113166
  C      -0.471933      3.482041      0.229154
  C      -2.426365      0.867004      0.129356
  C      -0.487187     -1.366119     -0.098254
  O      -0.039297      4.050692     -0.657872
  O       2.628271      1.213523      0.252572
  O      -0.265839     -2.491299     -0.082849
  O      -3.533848      0.798752      0.390725
  C      -0.355810      1.014340     -1.919813
  C      -0.366864      0.707130      1.999305
  O      -0.244141      1.246693     -3.035072
  O      -0.426280      0.825796      3.135615
13
Coordinates from ORCA-job OsCO6 E -769.938230112244
  Os     -0.406708      0.542617      0.033296
  C       1.501958      0.985947      0.120568
  C      -0.484295      3.571992      0.253566
  C      -2.400832      0.845280      0.137350
  C      -0.442028     -1.420023     -0.108300
  O      -0.043509      4.098305     -0.653200
  O       2.627336      1.207542      0.200983
  O      -0.218677     -2.544728     -0.115858
  O      -3.520063      0.895081      0.361449
  C      -0.359716      0.996829     -1.897017
  C      -0.399938      0.700967      2.013639
  O      -0.273957      1.215548     -3.018667
  O      -0.457380      0.843334      3.148302
13
Coordinates from ORCA-job OsCO6 E -769.943600512274
  Os     -0.411627      0.495064      0.046210
  C       1.502033      0.962936      0.115663
  C      -0.497494      3.659674      0.292568
  C      -2.379016      0.830755      0.127613
  C      -0.381078     -1.473151     -0.104508
  O      -0.053222      4.151124     -0.630835
  O       2.626173      1.202395      0.141556
  O      -0.179201     -2.600887     -0.117711
  O      -3.497442      0.997812      0.308599
  C      -0.373585      0.967043     -1.881344
  C      -0.428609      0.695914      2.023795
  O      -0.316330      1.198242     -3.002610
  O      -0.488413      0.851771      3.157115
13
Coordinates from ORCA-job OsCO6 E -769.947243902991
  Os     -0.409474      0.447022      0.051923
  C       1.505315      0.939465      0.105229
  C      -0.512349      3.749391      0.340033
  C      -2.359824      0.823629      0.107140
  C      -0.319854     -1.522254     -0.089768
  O      -0.066227      4.209524     -0.597533
  O       2.623595      1.202007      0.094914
  O      -0.160398     -2.656135     -0.093528
  O      -3.467472      1.085092      0.249124
  C      -0.392226      0.928922     -1.874430
  C      -0.446757      0.689165      2.020063
  O      -0.362662      1.190786     -2.989554
  O      -0.509478      0.852076      3.152498
13
Coordinates from ORCA-job OsCO6 E -769.949470074343
  Os     -0.403674      0.404161      0.048213
  C       1.507712      0.916983      0.091460
  C      -0.530059      3.847789      0.390442
  C      -2.342493      0.816948      0.082459
  C      -0.274018     -1.563615     -0.069264
  O      -0.078398      4.277654     -0.557418
  O       2.618810      1.202787      0.066987
  O      -0.168238     -2.703392     -0.053683
  O      -3.439422      1.135383      0.194270
  C      -0.406652      0.888690     -1.880943
  C      -0.450680      0.680263      2.009413
  O      -0.398858      1.185598     -2.987006
  O      -0.511841      0.849440      3.141180
13
Coordinates from ORCA-job OsCO6 E -769.950832527206
  Os     -0.395396      0.370514      0.036902
  C       1.514726      0.897025      0.075981
  C      -0.554332      3.957905      0.444839
  C      -2.325901      0.809948      0.056863
  C      -0.251730     -1.598224     -0.049255
  O      -0.093866      4.361959     -0.508609
  O       2.620308      1.200566      0.058424
  O      -0.197499     -2.741174     -0.011410
  O      -3.417649      1.152644      0.146278
  C      -0.414864      0.845391     -1.892666
  C      -0.441501      0.668851      1.990285
  O      -0.424039      1.164160     -2.991904
  O      -0.496069      0.849125      3.120383
13
Coordinates from ORCA-job OsCO6 E -769.951873331380
  Os     -0.383821      0.345859      0.020696
  C       1.523929      0.880400      0.058441
  C      -0.584692      4.075881      0.498842
  C      -2.307813      0.800002      0.035752
  C      -0.255783     -1.624295     -0.031070
  O      -0.111954      4.459546     -0.455729
  O       2.625397      1.196591      0.060114
  O      -0.246711     -2.767583      0.028200
  O      -3.401834      1.138119      0.110183
  C      -0.411462      0.803659     -1.916291
  C      -0.423112      0.655166      1.976409
  O      -0.431942      1.126982     -3.013996
  O      -0.468012      0.848363      3.104558
13
Coordinates from ORCA-job OsCO6 E -769.952822707425
  Os     -0.371220      0.331013      0.002842
  C       1.539630      0.867474      0.041328
  C      -0.623033      4.202780      0.555774
  C      -2.295579      0.791265      0.019179
  C      -0.285332     -1.642334     -0.019213
  O      -0.134725      4.576047     -0.394397
  O       2.639123      1.189655      0.072291
  O      -0.307805     -2.784846      0.054853
  O      -3.397963      1.103060      0.082500
  C      -0.397919      0.756486     -1.935854
  C      -0.394833      0.641023      1.955705
  O      -0.423827      1.057111     -3.039973
  O      -0.424327      0.849957      3.081077
13
Coordinates from ORCA-job OsCO6 E -769.953485245357
  Os     -0.358277      0.319314     -0.010214
  C       1.551281      0.855090      0.022864
  C      -0.661794      4.331736      0.609799
  C      -2.279821      0.780462      0.009145
  C      -0.328077     -1.651524     -0.010649
  O      -0.158559      4.703324     -0.332501
  O       2.648926      1.181458      0.073245
  O      -0.369611     -2.793192      0.065701
  O      -3.391210      1.059614      0.057702
  C      -0.376092      0.709508     -1.961132
  C      -0.369006      0.628246      1.952579
  O      -0.404042      0.967257     -3.076714
  O      -0.381528      0.847397      3.076284
13
Coordinates from ORCA-job OsCO6 E -769.953781941581
  Os     -0.351413      0.308914     -0.015091
  C       1.559857      0.845461      0.011545
  C      -0.690124      4.432233      0.654446
  C      -2.275621      0.779561      0.002293
  C      -0.354950     -1.662076     -0.008739
  O      -0.175848      4.804201     -0.281785
  O       2.656994      1.175643      0.067510
  O      -0.398209     -2.804497      0.060591
  O      -3.391123      1.046183      0.033859
  C      -0.362512      0.664681     -1.967754
  C      -0.352676      0.622138      1.944292
  O      -0.390729      0.880798     -3.092280
  O      -0.351456      0.845450      3.067223
13
Coordinates from ORCA-job OsCO6 E -769.953954530896
  Os     -0.348819      0.297031     -0.014079
  C       1.559915      0.837104      0.002216
  C      -0.707294      4.513886      0.688756
  C      -2.269788      0.780575     -0.002813
  C      -0.366223     -1.673054     -0.004254
  O      -0.185879      4.886272     -0.243210
  O       2.656048      1.173166      0.046001
  O      -0.404956     -2.816270      0.054643
  O      -3.384573      1.051549      0.009142
  C      -0.354715      0.625627     -1.972901
  C      -0.348776      0.616457      1.945639
  O      -0.383429      0.812011     -3.102707
  O      -0.339321      0.834337      3.069677
13
Coordinates from ORCA-job OsCO6 E -769.954101010521
  Os     -0.350456      0.281120     -0.010069
  C       1.554903      0.828638     -0.006820
  C      -0.720496      4.603860      0.726444
  C      -2.266508      0.787645     -0.011157
  C      -0.366578     -1.689138      0.003082
  O      -0.191776      4.974870     -0.202202
  O       2.649573      1.172913      0.012094
  O      -0.390876     -2.833472      0.048830
  O      -3.376740      1.077356     -0.024005
  C      -0.352818      0.576230     -1.975402
  C      -0.351054      0.608064      1.948791
  O      -0.380612      0.737480     -3.108742
  O      -0.334371      0.813125      3.075267
13
Coordinates from ORCA-job OsCO6 E -769.954165259870
  Os     -0.354678      0.269078     -0.008120
  C       1.546955      0.825069     -0.012816
  C      -0.725269      4.664063      0.751239
  C      -2.264182      0.796321     -0.019403
  C      -0.360335     -1.701677      0.011975
  O      -0.191746      5.032002     -0.176002
  O       2.639927      1.175520     -0.013325
  O      -0.369781     -2.846476      0.051443
  O      -3.369308      1.104135     -0.048187
  C      -0.356628      0.539681     -1.977734
  C      -0.355673      0.597245      1.950376
  O      -0.381711      0.692386     -3.111985
  O      -0.335381      0.791342      3.078649
13
Coordinates from ORCA-job OsCO6 E -769.954209273509
  Os     -0.359637      0.257926     -0.009103
  C       1.538106      0.825836     -0.019221
  C      -0.727795      4.714455      0.773015
  C      -2.262711      0.807749     -0.028576
  C      -0.353756     -1.712981      0.021806
  O      -0.189335      5.077104     -0.153516
  O       2.629189      1.182343     -0.031792
  O      -0.348491     -2.857859      0.059785
  O      -3.363329      1.130940     -0.067907
  C      -0.362620      0.505529     -1.982067
  C      -0.358758      0.582495      1.950481
  O      -0.382559      0.655682     -3.116500
  O      -0.336114      0.769471      3.079707
13
Coordinates from ORCA-job OsCO6 E -769.954256328935
  Os     -0.366363      0.242671     -0.012935
  C       1.523307      0.833718     -0.030320
  C      -0.729852      4.779613      0.801299
  C      -2.258628      0.826365     -0.040743
  C      -0.346765     -1.728247      0.035979
  O      -0.183896      5.133172     -0.124264
  O       2.611077      1.200083     -0.053070
  O      -0.322647     -2.872871      0.075115
  O      -3.353384      1.168491     -0.089830
  C      -0.370588      0.458120     -1.989147
  C      -0.361779      0.555749      1.949047
  O      -0.380761      0.605348     -3.123842
  O      -0.337531      0.736478      3.078820
13
Coordinates from ORCA-job OsCO6 E -769.954301310344
  Os     -0.375061      0.220228     -0.019711
  C       1.499335      0.855230     -0.048375
  C      -0.731661      4.868080      0.839611
  C      -2.250276      0.857490     -0.056082
  C      -0.339698     -1.749852      0.053953
  O      -0.174208      5.206799     -0.084500
  O       2.581082      1.239316     -0.079283
  O      -0.291621     -2.893762      0.095781
  O      -3.336242      1.226693     -0.114003
  C      -0.380098      0.387457     -2.000032
  C      -0.364784      0.510254      1.947181
  O      -0.374124      0.525615     -3.135607
  O      -0.340454      0.685144      3.077179
13
Coordinates from ORCA-job OsCO6 E -769.954340221358
  Os     -0.384795      0.190339     -0.028029
  C       1.461817      0.897062     -0.073119
  C      -0.731638      4.977528      0.884323
  C      -2.233135      0.903226     -0.071843
  C      -0.332420     -1.778460      0.072483
  O      -0.159081      5.295505     -0.037716
  O       2.533001      1.310278     -0.110081
  O      -0.258842     -2.921329      0.116232
  O      -3.305478      1.310774     -0.136040
  C      -0.389178      0.291953     -2.012140
  C      -0.368781      0.442677      1.945557
  O      -0.361711      0.409160     -3.149370
  O      -0.347569      0.609976      3.075854
13
Coordinates from ORCA-job OsCO6 E -769.954435505037
  Os     -0.388389      0.169808     -0.031910
  C       1.431751      0.941101     -0.088154
  C      -0.729438      5.043924      0.904430
  C      -2.215734      0.938899     -0.075169
  C      -0.329161     -1.798027      0.077173
  O      -0.146860      5.346341     -0.016444
  O       2.492439      1.381285     -0.123662
  O      -0.248996     -2.941118      0.117745
  O      -3.276737      1.375878     -0.137217
  C      -0.390222      0.225815     -2.018096
  C      -0.371091      0.388749      1.946742
  O      -0.349873      0.317318     -3.157034
  O      -0.355500      0.548719      3.077705
13
Coordinates from ORCA-job OsCO6 E -769.954667025129
  Os     -0.382516      0.160726     -0.029432
  C       1.408277      0.999703     -0.087375
  C      -0.722819      5.057743      0.885024
  C      -2.195033      0.967403     -0.057511
  C      -0.330460     -1.807741      0.061374
  O      -0.136552      5.349187     -0.037087
  O       2.456764      1.468985     -0.108949
  O      -0.272901     -2.953470      0.088233
  O      -3.247392      1.426034     -0.102357
  C      -0.379602      0.192133     -2.016936
  C      -0.371233      0.341620      1.953170
  O      -0.337474      0.247176     -3.158007
  O      -0.366868      0.489191      3.085964
13
Coordinates from ORCA-job OsCO6 E -769.954821942101
  Os     -0.374243      0.162067     -0.023458
  C       1.398865      1.039988     -0.073819
  C      -0.717427      5.051322      0.852650
  C      -2.179530      0.981088     -0.038838
  C      -0.333331     -1.808137      0.041866
  O      -0.133011      5.337647     -0.072540
  O       2.439364      1.527228     -0.086489
  O      -0.301468     -2.955522      0.053997
  O      -3.228216      1.448776     -0.069659
  C      -0.370176      0.183677     -2.011832
  C      -0.369838      0.315791      1.961178
  O      -0.335392      0.213707     -3.153782
  O      -0.373407      0.441055      3.096835
