13
Coordinates from ORCA-job WCO6 E -746.388445612534
  W      -1.376210      2.567220      0.107110
  C       0.708390      2.531170      0.309930
  C      -1.338340      4.661400      0.073760
  C      -3.460980      2.603160     -0.095720
  C      -1.415020      0.472960      0.140510
  C      -1.579940      2.605350      2.191680
  C      -1.171980      2.529100     -1.977390
  O      -1.689850      2.626190      3.314190
  O      -1.435730     -0.654660      0.158200
  O      -1.318320      5.789140      0.056030
  O      -1.061360      2.508310     -3.099690
  O      -4.583560      2.622770     -0.204550
  O       1.830950      2.511490      0.418660
13
Coordinates from ORCA-job WCO6 E -746.392712298510
  W      -1.376321      2.567207      0.107143
  C       0.702062      2.531509      0.309644
  C      -1.338145      4.655041      0.073684
  C      -3.454707      2.602855     -0.095409
  C      -1.414991      0.479316      0.140589
  C      -1.579167      2.604995      2.185406
  C      -1.172981      2.529453     -1.971141
  O      -1.690401      2.625999      3.323353
  O      -1.436026     -0.663884      0.158732
  O      -1.317539      5.798273      0.055579
  O      -1.061099      2.508511     -3.109002
  O      -4.592736      2.622635     -0.205898
  O       1.840102      2.511690      0.420039
13
Coordinates from ORCA-job WCO6 E -746.392778178736
  W      -1.376343      2.567195      0.107121
  C       0.703999      2.531639      0.310060
  C      -1.337888      4.657072      0.073523
  C      -3.456688      2.602725     -0.095861
  C      -1.415078      0.477314      0.140737
  C      -1.579237      2.604845      2.187421
  C      -1.173065      2.529583     -1.973152
  O      -1.690535      2.625793      3.327580
  O      -1.436220     -0.668106      0.159114
  O      -1.316982      5.802505      0.055302
  O      -1.061233      2.508696     -3.113254
  O      -4.596910      2.622460     -0.206698
  O       1.844228      2.511878      0.420827
13
Coordinates from ORCA-job WCO6 E -746.392781540152
  W      -1.376350      2.567194      0.107104
  C       0.702041      2.531774      0.310003
  C      -1.337804      4.655103      0.073497
  C      -3.454744      2.602595     -0.095826
  C      -1.415064      0.479288      0.140779
  C      -1.578983      2.604701      2.185470
  C      -1.173418      2.529720     -1.971236
  O      -1.690196      2.625594      3.325826
  O      -1.436260     -0.666320      0.159303
  O      -1.316710      5.800718      0.055227
  O      -1.061765      2.508886     -3.111550
  O      -4.595147      2.622278     -0.206775
  O       1.842450      2.512069      0.420898
13
Coordinates from ORCA-job WCO6 E -746.392782288401
  W      -1.376352      2.567194      0.107097
  C       0.702730      2.531798      0.310111
  C      -1.337752      4.655804      0.073474
  C      -3.455437      2.602573     -0.095947
  C      -1.415079      0.478586      0.140815
  C      -1.579035      2.604679      2.186160
  C      -1.173403      2.529742     -1.971947
  O      -1.690197      2.625547      3.326411
  O      -1.436295     -0.666912      0.159400
  O      -1.316581      5.801308      0.055191
  O      -1.061845      2.508931     -3.112161
  O      -4.595728      2.622233     -0.206926
  O       1.843025      2.512116      0.421041
