!B3LYP def2-SVP OPT FREQ

* xyz +3 1 
Ir        -0.00062        0.91173        0.04101
C         -0.06901        2.98470        0.12549
C          2.07360        0.97764        0.08906
C          0.06736       -1.16128       -0.04348
C         -2.07485        0.84542       -0.00701
O         -0.10630        4.11118        0.17092
O          3.20075        1.01336        0.11489
O          0.10424       -2.28777       -0.08897
O         -3.20198        0.80934       -0.03287
C          0.04584        0.99977       -2.03242
C         -0.04670        0.82402        2.11450
O          0.07143        1.04816       -3.15909
O         -0.07187        0.77599        3.24120
*