13
Coordinates from ORCA-job HfCO6 E -727.950483776487
  Hf     -0.437330      0.821140     -0.003270
  C       1.850690      0.751790     -0.210430
  C      -0.367130      3.118510      0.000020
  C      -2.725380      0.890990      0.203880
  C      -0.507430     -1.476230     -0.006560
  O      -0.332670      4.245990      0.001630
  O       2.973680      0.717830     -0.311460
  O      -0.541800     -2.603700     -0.008170
  O      -3.848280      0.925360      0.304890
  C      -0.648180      0.830670     -2.292020
  C      -0.226600      0.811110      2.285460
  O      -0.752320      0.835290     -3.415170
  O      -0.122550      0.806080      3.408660
13
Coordinates from ORCA-job HfCO6 E -727.955969586510
  Hf     -0.437176      0.821135     -0.003145
  C       1.829238      0.794718     -0.165913
  C      -0.329088      3.091654     -0.046212
  C      -2.703653      0.847976      0.159719
  C      -0.545178     -1.449406      0.039917
  O      -0.277400      4.228450     -0.066966
  O       2.964253      0.780967     -0.249351
  O      -0.598864     -2.586138      0.058926
  O      -3.838641      0.862111      0.243186
  C      -0.686139      0.874070     -2.262034
  C      -0.188230      0.767797      2.255679
  O      -0.808936      0.899825     -3.393256
  O      -0.065486      0.741671      3.386909
13
Coordinates from ORCA-job HfCO6 E -727.960457851959
  Hf     -0.436794      0.821116     -0.002831
  C       1.849604      0.888085     -0.071837
  C      -0.243597      3.096476     -0.148424
  C      -2.723059      0.754508      0.066332
  C      -0.631202     -1.454213      0.141726
  O      -0.151712      4.239281     -0.219748
  O       2.997243      0.920487     -0.111171
  O      -0.728007     -2.596872      0.208860
  O      -3.870751      0.722453      0.105740
  C      -0.777833      0.970325     -2.260342
  C      -0.095674      0.671591      2.254771
  O      -0.944476      1.043719     -3.394580
  O       0.070958      0.597875      3.388964
13
Coordinates from ORCA-job HfCO6 E -727.962601548047
  Hf     -0.436659      0.821097     -0.002730
  C       1.827068      0.962953      0.006728
  C      -0.178527      3.060502     -0.228728
  C      -2.700107      0.679597     -0.012070
  C      -0.697665     -1.418234      0.220947
  O      -0.050701      4.195005     -0.341877
  O       2.972246      1.033740      0.009441
  O      -0.829148     -2.552633      0.330994
  O      -3.845361      0.609133     -0.014712
  C      -0.847930      1.046130     -2.220110
  C      -0.025294      0.595832      2.214873
  O      -1.053813      1.158914     -3.343190
  O       0.180592      0.482792      3.337894
13
Coordinates from ORCA-job HfCO6 E -727.963322641061
  Hf     -0.437118      0.821093     -0.003130
  C       1.831279      0.979033      0.021593
  C      -0.165055      3.062977     -0.245926
  C      -2.705576      0.663679     -0.027698
  C      -0.711593     -1.420745      0.237711
  O      -0.024797      4.190214     -0.368865
  O       2.970925      1.058880      0.039033
  O      -0.849752     -2.548043      0.362487
  O      -3.845285      0.584246     -0.045056
  C      -0.864202      1.063543     -2.224294
  C      -0.009970      0.578348      2.217979
  O      -1.082832      1.185864     -3.339126
  O       0.208674      0.455741      3.332752
13
Coordinates from ORCA-job HfCO6 E -727.963463266270
  Hf     -0.438101      0.821129     -0.003962
  C       1.834200      0.978498      0.018676
  C      -0.165891      3.067197     -0.244320
  C      -2.710755      0.664451     -0.026297
  C      -0.709656     -1.424920      0.237014
  O      -0.019012      4.191147     -0.368688
  O       2.971301      1.060154      0.043021
  O      -0.847435     -2.549123      0.369236
  O      -3.847889      0.583319     -0.050514
  C      -0.863424      1.063284     -2.227420
  C      -0.012639      0.578423      2.219096
  O      -1.087923      1.187679     -3.338405
  O       0.211924      0.453592      3.330023
13
Coordinates from ORCA-job HfCO6 E -727.963522286818
  Hf     -0.439082      0.821200     -0.004804
  C       1.832667      0.981668      0.020607
  C      -0.162920      3.066445     -0.246851
  C      -2.711424      0.661197     -0.029874
  C      -0.710966     -1.424088      0.241011
  O      -0.008277      4.188643     -0.375184
  O       2.968990      1.067396      0.053025
  O      -0.850709     -2.546681      0.382291
  O      -3.847754      0.575914     -0.062156
  C      -0.867396      1.067507     -2.229447
  C      -0.010569      0.574311      2.219169
  O      -1.099157      1.196502     -3.338198
  O       0.221296      0.444817      3.327870
13
Coordinates from ORCA-job HfCO6 E -727.963646971464
  Hf     -0.441964      0.821454     -0.007255
  C       1.829649      0.985878      0.021503
  C      -0.157510      3.066881     -0.249058
  C      -2.714545      0.655899     -0.035932
  C      -0.710831     -1.424179      0.248253
  O       0.017468      4.185090     -0.387519
  O       2.964538      1.082299      0.074064
  O      -0.855545     -2.543114      0.413236
  O      -3.849323      0.559240     -0.088460
  C      -0.873424      1.074308     -2.229559
  C      -0.010273      0.568588      2.213869
  O      -1.123389      1.215648     -3.332926
  O       0.239848      0.426839      3.317244
13
Coordinates from ORCA-job HfCO6 E -727.963676219897
  Hf     -0.442607      0.821554     -0.007792
  C       1.827402      0.984342      0.020319
  C      -0.157486      3.065325     -0.247618
  C      -2.713338      0.656013     -0.036386
  C      -0.709094     -1.422490      0.248526
  O       0.022076      4.182760     -0.389796
  O       2.962202      1.084405      0.077018
  O      -0.856241     -2.540660      0.419325
  O      -3.847949      0.554915     -0.093238
  C      -0.874182      1.074892     -2.231003
  C      -0.011002      0.569398      2.214508
  O      -1.127852      1.220803     -3.333477
  O       0.242769      0.423572      3.317072
13
Coordinates from ORCA-job HfCO6 E -727.963698838151
  Hf     -0.442530      0.821607     -0.007700
  C       1.827587      0.983621      0.020795
  C      -0.156517      3.065266     -0.247931
  C      -2.712964      0.654986     -0.037483
  C      -0.709484     -1.422334      0.249528
  O       0.025075      4.182156     -0.394487
  O       2.962299      1.087658      0.078967
  O      -0.860472     -2.539890      0.423290
  O      -3.847406      0.548923     -0.096065
  C      -0.874809      1.075713     -2.228778
  C      -0.010630      0.570291      2.212952
  O      -1.129804      1.226418     -3.330627
  O       0.244354      0.420415      3.314997
13
Coordinates from ORCA-job HfCO6 E -727.963722038893
  Hf     -0.441598      0.821629     -0.006863
  C       1.828572      0.982184      0.021656
  C      -0.155771      3.064830     -0.248864
  C      -2.711390      0.653962     -0.037939
  C      -0.710877     -1.421743      0.250106
  O       0.025757      4.180983     -0.402404
  O       2.962950      1.092207      0.078943
  O      -0.868750     -2.538366      0.425003
  O      -3.845374      0.540414     -0.096033
  C      -0.874884      1.076378     -2.226748
  C      -0.009427      0.571983      2.213496
  O      -1.128935      1.234053     -3.328071
  O       0.244427      0.416314      3.315178
13
Coordinates from ORCA-job HfCO6 E -727.963737325796
  Hf     -0.439772      0.821618     -0.005248
  C       1.830972      0.982364      0.023712
  C      -0.154288      3.064265     -0.252156
  C      -2.709436      0.651974     -0.037919
  C      -0.714737     -1.421084      0.251478
  O       0.026008      4.179092     -0.415839
  O       2.964485      1.101030      0.078916
  O      -0.882906     -2.536096      0.426551
  O      -3.842429      0.528382     -0.094307
  C      -0.874471      1.077787     -2.224351
  C      -0.006947      0.572311      2.215232
  O      -1.126308      1.244697     -3.324760
  O       0.244527      0.408490      3.316151
13
Coordinates from ORCA-job HfCO6 E -727.963739702666
  Hf     -0.438623      0.821548     -0.004243
  C       1.832312      0.984085      0.024555
  C      -0.153780      3.064009     -0.254684
  C      -2.708584      0.651428     -0.036345
  C      -0.717439     -1.420868      0.251904
  O       0.024938      4.178259     -0.422595
  O       2.965285      1.106417      0.078121
  O      -0.890169     -2.535189      0.425626
  O      -3.841058      0.524473     -0.090974
  C      -0.872962      1.078040     -2.224084
  C      -0.005993      0.570883      2.216906
  O      -1.123018      1.247919     -3.324202
  O       0.243792      0.403827      3.317474
13
Coordinates from ORCA-job HfCO6 E -727.963740218533
  Hf     -0.437953      0.821476     -0.003645
  C       1.833065      0.986529      0.024844
  C      -0.153562      3.063697     -0.256772
  C      -2.708294      0.651443     -0.034289
  C      -0.719482     -1.420731      0.252108
  O       0.024022      4.177723     -0.426469
  O       2.965732      1.110568      0.077569
  O      -0.894270     -2.534804      0.424445
  O      -3.840576      0.523834     -0.087743
  C      -0.871079      1.077869     -2.224261
  C      -0.005878      0.568698      2.217824
  O      -1.120135      1.248229     -3.324361
  O       0.243110      0.400299      3.318208
13
Coordinates from ORCA-job HfCO6 E -727.963740464961
  Hf     -0.437689      0.821415     -0.003406
  C       1.833138      0.988208      0.024627
  C      -0.153612      3.063474     -0.257754
  C      -2.708233      0.651860     -0.032518
  C      -0.720353     -1.420627      0.251997
  O       0.023342      4.177559     -0.427720
  O       2.965744      1.112689      0.077059
  O      -0.895592     -2.534778      0.423325
  O      -3.840559      0.524832     -0.085384
  C      -0.869478      1.077373     -2.224582
  C      -0.006310      0.567154      2.218128
  O      -1.118148      1.247105     -3.324825
  O       0.242449      0.398567      3.318511
