13
Coordinates from ORCA-job HfCO6+ E -727.720707256212
  Hf     -0.437330      0.821140     -0.003270
  C       1.850690      0.751790     -0.210430
  C      -0.367130      3.118510      0.000020
  C      -2.725380      0.890990      0.203880
  C      -0.507430     -1.476230     -0.006560
  O      -0.332670      4.245990      0.001630
  O       2.973680      0.717830     -0.311460
  O      -0.541800     -2.603700     -0.008170
  O      -3.848280      0.925360      0.304890
  C      -0.648180      0.830670     -2.292020
  C      -0.226600      0.811110      2.285460
  O      -0.752320      0.835290     -3.415170
  O      -0.122550      0.806080      3.408660
13
Coordinates from ORCA-job HfCO6+ E -727.721043685175
  Hf     -0.437313      0.821142     -0.003270
  C       1.911254      0.750111     -0.216233
  C      -0.364994      3.180079      0.000185
  C      -2.785925      0.892605      0.209688
  C      -0.509551     -1.537808     -0.006719
  O      -0.330548      4.307060      0.001838
  O       3.033693      0.716270     -0.317369
  O      -0.544002     -2.664787     -0.008351
  O      -3.908338      0.926816      0.310813
  C      -0.653528      0.830871     -2.353381
  C      -0.221216      0.810983      2.346812
  O      -0.757407      0.835456     -3.476069
  O      -0.117426      0.806032      3.469515
13
Coordinates from ORCA-job HfCO6+ E -727.721866161663
  Hf     -0.437310      0.821142     -0.003273
  C       1.885662      0.750958     -0.214066
  C      -0.365662      3.154236      0.000178
  C      -2.760298      0.891708      0.207513
  C      -0.508897     -1.511963     -0.006716
  O      -0.331240      4.280817      0.001852
  O       3.007703      0.717187     -0.315235
  O      -0.543383     -2.638541     -0.008356
  O      -3.882321      0.925827      0.308675
  C      -0.651036      0.830742     -2.327673
  C      -0.223697      0.811160      2.321111
  O      -0.754761      0.835309     -3.449975
  O      -0.120059      0.806248      3.443425
13
Coordinates from ORCA-job HfCO6+ E -727.721875467586
  Hf     -0.437303      0.821140     -0.003278
  C       1.883098      0.751150     -0.214088
  C      -0.365558      3.151446      0.000226
  C      -2.757691      0.891446      0.207525
  C      -0.509024     -1.509169     -0.006766
  O      -0.331148      4.277962      0.001933
  O       3.005067      0.717473     -0.315379
  O      -0.543583     -2.635679     -0.008423
  O      -3.879649      0.925436      0.308810
  C      -0.650562      0.830692     -2.324907
  C      -0.224151      0.811275      2.318354
  O      -0.754086      0.835232     -3.447163
  O      -0.120710      0.806425      3.440617
13
Coordinates from ORCA-job HfCO6+ E -727.721875341413
  Hf     -0.437295      0.821140     -0.003281
  C       1.883193      0.751226     -0.214282
  C      -0.365419      3.151648      0.000264
  C      -2.757765      0.891325      0.207715
  C      -0.509180     -1.509370     -0.006802
  O      -0.331017      4.278161      0.001994
  O       3.005148      0.717618     -0.315673
  O      -0.543790     -2.635876     -0.008471
  O      -3.879711      0.925220      0.309101
  C      -0.650416      0.830666     -2.325131
  C      -0.224274      0.811345      2.318575
  O      -0.753792      0.835187     -3.447398
  O      -0.120981      0.806541      3.440849
