13
Coordinates from ORCA-job HfCO6-2 E -727.947738614544
  Hf     -0.437330      0.821140     -0.003270
  C       1.850690      0.751790     -0.210430
  C      -0.367130      3.118510      0.000020
  C      -2.725380      0.890990      0.203880
  C      -0.507430     -1.476230     -0.006560
  O      -0.332670      4.245990      0.001630
  O       2.973680      0.717830     -0.311460
  O      -0.541800     -2.603700     -0.008170
  O      -3.848280      0.925360      0.304890
  C      -0.648180      0.830670     -2.292020
  C      -0.226600      0.811110      2.285460
  O      -0.752320      0.835290     -3.415170
  O      -0.122550      0.806080      3.408660
13
Coordinates from ORCA-job HfCO6-2 E -727.973596787267
  Hf     -0.437327      0.821141     -0.003269
  C       1.794726      0.753621     -0.205559
  C      -0.368713      3.062663     -0.000012
  C      -2.669405      0.889143      0.199013
  C      -0.505848     -1.420388     -0.006522
  O      -0.333143      4.222800      0.001667
  O       2.950202      0.718737     -0.309631
  O      -0.541291     -2.580524     -0.008210
  O      -3.824843      0.924445      0.303072
  C      -0.642840      0.830378     -2.236437
  C      -0.231939      0.811425      2.229882
  O      -0.749919      0.835103     -3.392144
  O      -0.124958      0.806285      3.385611
13
Coordinates from ORCA-job HfCO6-2 E -727.975269847325
  Hf     -0.437339      0.821140     -0.003274
  C       1.792080      0.753784     -0.205622
  C      -0.368746      3.059896      0.000044
  C      -2.666719      0.888965      0.199067
  C      -0.505829     -1.417618     -0.006589
  O      -0.332720      4.231753      0.001774
  O       2.959205      0.718554     -0.310981
  O      -0.541681     -2.589479     -0.008343
  O      -3.833823      0.924610      0.304421
  C      -0.642250      0.830286     -2.233699
  C      -0.232560      0.811531      2.227173
  O      -0.750270      0.835022     -3.401101
  O      -0.124647      0.806387      3.394588
13
Coordinates from ORCA-job HfCO6-2 E -727.975279488367
  Hf     -0.437336      0.821140     -0.003270
  C       1.780265      0.754178     -0.204772
  C      -0.369066      3.048278      0.000073
  C      -2.654939      0.888557      0.198233
  C      -0.505482     -1.406004     -0.006615
  O      -0.332972      4.220788      0.001828
  O       2.948020      0.718917     -0.310391
  O      -0.541378     -2.578521     -0.008409
  O      -3.822680      0.924225      0.303851
  C      -0.640932      0.830187     -2.222190
  C      -0.233877      0.811648      2.215651
  O      -0.748868      0.834900     -3.390263
  O      -0.126056      0.806537      3.383733
13
Coordinates from ORCA-job HfCO6-2 E -727.975324189389
  Hf     -0.437340      0.821140     -0.003269
  C       1.786334      0.754004     -0.205400
  C      -0.368879      3.054235      0.000093
  C      -2.661004      0.888728      0.198861
  C      -0.505665     -1.411961     -0.006639
  O      -0.332765      4.226817      0.001856
  O       2.954155      0.718734     -0.311100
  O      -0.541570     -2.584549     -0.008447
  O      -3.828811      0.924402      0.304561
  C      -0.641396      0.830195     -2.228108
  C      -0.233423      0.811643      2.221575
  O      -0.749279      0.834901     -3.396258
  O      -0.125658      0.806543      3.389735
13
Coordinates from ORCA-job HfCO6-2 E -727.975324236536
  Hf     -0.437343      0.821139     -0.003268
  C       1.786228      0.754026     -0.205538
  C      -0.368868      3.054183      0.000115
  C      -2.660895      0.888696      0.199002
  C      -0.505666     -1.411909     -0.006669
  O      -0.332724      4.226768      0.001893
  O       2.954039      0.718742     -0.311390
  O      -0.541585     -2.584501     -0.008504
  O      -3.828693      0.924377      0.304856
  C      -0.641234      0.830164     -2.228072
  C      -0.233600      0.811683      2.221549
  O      -0.748999      0.834854     -3.396237
  O      -0.125960      0.806607      3.389725
