13
Coordinates from ORCA-job MoCO6 E -748.283159319729
  Mo     -1.162230      1.462310      0.004400
  C      -1.140930      3.602050      0.195850
  C       0.985560      1.437520      0.047410
  C      -3.310100      1.487320     -0.038580
  C      -1.183660     -0.677450     -0.187050
  O      -1.129650      4.725570      0.295720
  O       2.113310      1.424660      0.069860
  O      -1.195030     -1.800940     -0.286920
  O      -4.437740      1.500410     -0.061000
  C      -1.116540      1.655840     -2.134770
  C      -1.207870      1.268530      2.143580
  O      -1.092370      1.758040     -3.257880
  O      -1.231960      1.166090      3.266630
13
Coordinates from ORCA-job MoCO6 E -748.289647296172
  Mo     -1.162232      1.462310      0.004400
  C      -1.141228      3.575555      0.193806
  C       0.958739      1.437735      0.047046
  C      -3.283280      1.487069     -0.038225
  C      -1.183329     -0.650954     -0.185010
  O      -1.129899      4.707302      0.294342
  O       2.094721      1.424762      0.069605
  O      -1.194730     -1.782693     -0.285551
  O      -4.419235      1.500255     -0.060760
  C      -1.117203      1.653371     -2.108282
  C      -1.207208      1.271045      2.117094
  O      -1.092952      1.756008     -3.239634
  O      -1.231377      1.168185      3.248418
13
Coordinates from ORCA-job MoCO6 E -748.293571987905
  Mo     -1.162246      1.462306      0.004403
  C      -1.141777      3.529108      0.190381
  C       0.911652      1.438067      0.046496
  C      -3.236186      1.486659     -0.037685
  C      -1.182745     -0.604505     -0.181584
  O      -1.130482      4.666315      0.291208
  O       2.053107      1.425000      0.069014
  O      -1.194082     -1.741719     -0.282421
  O      -4.377668      1.499901     -0.060190
  C      -1.118396      1.649079     -2.061859
  C      -1.206036      1.275417      2.070674
  O      -1.094259      1.751442     -3.198724
  O      -1.230091      1.172880      3.207536
13
Coordinates from ORCA-job MoCO6 E -748.293657473080
  Mo     -1.162249      1.462304      0.004405
  C      -1.141801      3.529388      0.190600
  C       0.911916      1.438005      0.046614
  C      -3.236442      1.486711     -0.037801
  C      -1.182724     -0.604786     -0.181800
  O      -1.130561      4.664712      0.291189
  O       2.051490      1.424958      0.069055
  O      -1.194003     -1.740112     -0.282399
  O      -4.376025      1.499927     -0.060231
  C      -1.118441      1.649117     -2.062161
  C      -1.206004      1.275383      2.070975
  O      -1.094427      1.751058     -3.197164
  O      -1.229939      1.173284      3.205969
13
Coordinates from ORCA-job MoCO6 E -748.293668315019
  Mo     -1.162251      1.462302      0.004406
  C      -1.141841      3.528748      0.190808
  C       0.911248      1.437931      0.046750
  C      -3.235767      1.486771     -0.037936
  C      -1.182684     -0.604147     -0.182007
  O      -1.130662      4.663249      0.291234
  O       2.049999      1.424891      0.069127
  O      -1.193900     -1.738647     -0.282444
  O      -4.374515      1.499970     -0.060303
  C      -1.118515      1.649077     -2.061547
  C      -1.205940      1.275433      2.070360
  O      -1.094642      1.750592     -3.195755
  O      -1.229741      1.173781      3.204556
13
Coordinates from ORCA-job MoCO6 E -748.293668142147
  Mo     -1.162251      1.462301      0.004406
  C      -1.141853      3.528806      0.190949
  C       0.911307      1.437888      0.046824
  C      -3.235821      1.486807     -0.038009
  C      -1.182670     -0.604207     -0.182147
  O      -1.130706      4.663316      0.291336
  O       2.050063      1.424848      0.069181
  O      -1.193852     -1.738715     -0.282545
  O      -4.374575      1.500001     -0.060358
  C      -1.118538      1.649095     -2.061619
  C      -1.205922      1.275420      2.070431
  O      -1.094737      1.750420     -3.195849
  O      -1.229654      1.173970      3.204651
