12
Coordinates from ORCA-job MoCO5F- E -734.879015031149
  Mo     -1.313500      0.803100     -0.046080
  C      -1.294680      2.948760      0.063940
  C      -3.461350      0.823850     -0.095990
  C       0.834380      0.781760      0.002320
  C      -1.332540     -1.342420     -0.157580
  O      -1.284750      4.075210      0.121320
  O       1.962040      0.770500      0.027440
  O      -1.342700     -2.468900     -0.216150
  O      -4.589000      0.834470     -0.122340
  C      -1.262890      0.914490     -2.191060
  O      -1.236180      0.973310     -3.317200
  F      -1.359670      0.701590      1.921870
12
Coordinates from ORCA-job MoCO5F- E -734.894435477763
  Mo     -1.313386      0.803528     -0.049433
  C      -1.295439      2.918816      0.057146
  C      -3.430850      0.822656     -0.103053
  C       0.804050      0.780889     -0.003667
  C      -1.332726     -1.311705     -0.163944
  O      -1.285499      4.062994      0.104292
  O       1.949125      0.769067      0.010542
  O      -1.343324     -2.455104     -0.228479
  O      -4.575617      0.832440     -0.134777
  C      -1.262690      0.913996     -2.148034
  O      -1.234769      0.974755     -3.299598
  F      -1.359715      0.703388      1.949494
12
Coordinates from ORCA-job MoCO5F- E -734.903833259799
  Mo     -1.313273      0.804243     -0.055911
  C      -1.296699      2.870018      0.043083
  C      -3.380676      0.820769     -0.117759
  C       0.754383      0.779475     -0.016436
  C      -1.333132     -1.260991     -0.177670
  O      -1.286873      4.025568      0.068397
  O       1.910211      0.766922     -0.024658
  O      -1.344443     -2.414409     -0.253899
  O      -4.535818      0.828570     -0.160607
  C      -1.262163      0.912963     -2.068533
  O      -1.232440      0.976043     -3.238464
  F      -1.359919      0.706550      1.992948
12
Coordinates from ORCA-job MoCO5F- E -734.905064757688
  Mo     -1.313365      0.804429     -0.057387
  C      -1.297375      2.857544      0.038215
  C      -3.367425      0.819642     -0.123586
  C       0.741427      0.778356     -0.021101
  C      -1.333694     -1.247360     -0.183428
  O      -1.287726      4.011068      0.051342
  O       1.894891      0.765374     -0.041676
  O      -1.345565     -2.398142     -0.266286
  O      -4.520127      0.825828     -0.172906
  C      -1.261387      0.913027     -2.038830
  O      -1.230752      0.977128     -3.208321
  F      -1.359741      0.708827      2.014454
12
Coordinates from ORCA-job MoCO5F- E -734.905562565777
  Mo     -1.313551      0.804400     -0.056108
  C      -1.297973      2.857723      0.037299
  C      -3.366948      0.818467     -0.125716
  C       0.741229      0.777039     -0.022262
  C      -1.334493     -1.246506     -0.185806
  O      -1.288577      4.007432      0.040512
  O       1.890605      0.763542     -0.052964
  O      -1.347083     -2.393021     -0.274755
  O      -4.515558      0.822834     -0.181002
  C      -1.260322      0.913687     -2.027793
  O      -1.228913      0.978740     -3.193420
  F      -1.359257      0.711384      2.032506
12
Coordinates from ORCA-job MoCO5F- E -734.905759187770
  Mo     -1.313710      0.804322     -0.053533
  C      -1.298520      2.861413      0.038229
  C      -3.369928      0.817211     -0.125805
  C       0.744597      0.775684     -0.021734
  C      -1.335388     -1.249138     -0.186162
  O      -1.289460      4.009349      0.033314
  O       1.891964      0.761497     -0.060942
  O      -1.348858     -2.393492     -0.281229
  O      -4.516552      0.819642     -0.187016
  C      -1.259288      0.914431     -2.024652
  O      -1.227192      0.980530     -3.187898
  F      -1.358504      0.714272      2.047916
12
Coordinates from ORCA-job MoCO5F- E -734.905857203355
  Mo     -1.313779      0.804284     -0.050526
  C      -1.299008      2.864296      0.039466
  C      -3.371944      0.815938     -0.125195
  C       0.747179      0.774427     -0.020908
  C      -1.336263     -1.250840     -0.185704
  O      -1.290376      4.012192      0.027762
  O       1.894299      0.759382     -0.067423
  O      -1.350714     -2.394764     -0.287199
  O      -4.518321      0.816416     -0.192592
  C      -1.258534      0.914899     -2.022585
  O      -1.225878      0.982036     -3.185452
  F      -1.357502      0.717454      2.060846
12
Coordinates from ORCA-job MoCO5F- E -734.905906547831
  Mo     -1.313729      0.804316     -0.047355
  C      -1.299357      2.865831      0.040533
  C      -3.372494      0.814823     -0.124292
  C       0.748450      0.773449     -0.020223
  C      -1.336989     -1.251133     -0.184800
  O      -1.291239      4.014314      0.023889
  O       1.895995      0.757453     -0.072275
  O      -1.352406     -2.395227     -0.292687
  O      -4.519226      0.813545     -0.197840
  C      -1.258251      0.914897     -2.020486
  O      -1.225299      0.982799     -3.183984
  F      -1.356295      0.720653      2.070010
12
Coordinates from ORCA-job MoCO5F- E -734.905927733013
  Mo     -1.313595      0.804411     -0.044935
  C      -1.299482      2.866209      0.041090
  C      -3.372079      0.814196     -0.123554
  C       0.748657      0.773000     -0.019939
  C      -1.337362     -1.250568     -0.183943
  O      -1.291810      4.015030      0.022230
  O       1.896459      0.756252     -0.074691
  O      -1.353440     -2.394657     -0.296514
  O      -4.518944      0.811845     -0.201624
  C      -1.258460      0.914479     -2.018670
  O      -1.225546      0.982588     -3.182673
  F      -1.355238      0.722936      2.073712
12
Coordinates from ORCA-job MoCO5F- E -734.905964549808
  Mo     -1.313222      0.804701     -0.039540
  C      -1.299635      2.866788      0.042126
  C      -3.370915      0.813048     -0.121964
  C       0.748866      0.772276     -0.019527
  C      -1.338005     -1.249095     -0.182000
  O      -1.293003      4.015961      0.019429
  O       1.896863      0.753834     -0.079215
  O      -1.355392     -2.392681     -0.305008
  O      -4.517585      0.808641     -0.210141
  C      -1.259321      0.913161     -2.014216
  O      -1.226750      0.981260     -3.178866
  F      -1.352740      0.727827      2.079412
12
Coordinates from ORCA-job MoCO5F- E -734.906014364935
  Mo     -1.312546      0.805274     -0.030297
  C      -1.299779      2.867793      0.043758
  C      -3.369117      0.811434     -0.119386
  C       0.749239      0.771351     -0.019013
  C      -1.338857     -1.246794     -0.178720
  O      -1.294959      4.017080      0.015286
  O       1.897076      0.750020     -0.086391
  O      -1.358069     -2.388767     -0.319773
  O      -4.514722      0.804128     -0.225093
  C      -1.261236      0.910481     -2.005929
  O      -1.229536      0.977912     -3.171043
  F      -1.348334      0.735809      2.087089
12
Coordinates from ORCA-job MoCO5F- E -734.906057482072
  Mo     -1.311765      0.806017     -0.019133
  C      -1.299809      2.869091      0.045649
  C      -3.367525      0.810114     -0.116544
  C       0.749774      0.770681     -0.018582
  C      -1.339442     -1.244640     -0.174869
  O      -1.297133      4.018027      0.010833
  O       1.896900      0.745982     -0.094671
  O      -1.360010     -2.383747     -0.337903
  O      -4.510947      0.800447     -0.243728
  C      -1.264100      0.906739     -1.995016
  O      -1.233791      0.972426     -3.160045
  F      -1.342993      0.744583      2.094499
12
Coordinates from ORCA-job MoCO5F- E -734.906073828312
  Mo     -1.311469      0.806430     -0.013509
  C      -1.299605      2.869787      0.046626
  C      -3.367543      0.810425     -0.115536
  C       0.750111      0.770966     -0.018553
  C      -1.339014     -1.244443     -0.173047
  O      -1.297847      4.018192      0.009071
  O       1.896503      0.744865     -0.098703
  O      -1.359285     -2.381512     -0.347199
  O      -4.509283      0.800961     -0.253806
  C      -1.266119      0.904361     -1.988560
  O      -1.236870      0.968031     -3.153074
  F      -1.340418      0.747655      2.096782
12
Coordinates from ORCA-job MoCO5F- E -734.906078005812
  Mo     -1.311602      0.806474     -0.013260
  C      -1.299358      2.869756      0.046787
  C      -3.368487      0.811688     -0.115994
  C       0.750123      0.771731     -0.018705
  C      -1.338073     -1.245465     -0.173070
  O      -1.297384      4.017899      0.009384
  O       1.896224      0.746018     -0.098956
  O      -1.357176     -2.382109     -0.347641
  O      -4.509812      0.803925     -0.254998
  C      -1.266780      0.903784     -1.987367
  O      -1.237958      0.966046     -3.151569
  F      -1.340557      0.745972      2.095880
12
Coordinates from ORCA-job MoCO5F- E -734.906080630931
  Mo     -1.311798      0.806417     -0.013822
  C      -1.299225      2.869469      0.046869
  C      -3.369246      0.812812     -0.116520
  C       0.749959      0.772357     -0.018786
  C      -1.337287     -1.246361     -0.173289
  O      -1.296880      4.017592      0.009788
  O       1.896032      0.747280     -0.098792
  O      -1.355226     -2.383073     -0.346554
  O      -4.510586      0.806753     -0.254568
  C      -1.267008      0.903681     -1.987468
  O      -1.238397      0.964995     -3.151682
  F      -1.341180      0.743798      2.095314
12
Coordinates from ORCA-job MoCO5F- E -734.906085256975
  Mo     -1.312056      0.806322     -0.013791
  C      -1.299120      2.868949      0.047165
  C      -3.370015      0.814253     -0.116996
  C       0.749600      0.773121     -0.018836
  C      -1.336283     -1.247331     -0.173227
  O      -1.296358      4.017142      0.009947
  O       1.895695      0.748783     -0.099307
  O      -1.352536     -2.384055     -0.346097
  O      -4.511326      0.810590     -0.255183
  C      -1.267432      0.903355     -1.987162
  O      -1.239182      0.963359     -3.151550
  F      -1.341827      0.741232      2.095528
12
Coordinates from ORCA-job MoCO5F- E -734.906090545731
  Mo     -1.312287      0.806199     -0.012879
  C      -1.299084      2.868347      0.047610
  C      -3.370455      0.815482     -0.117188
  C       0.749147      0.773733     -0.018873
  C      -1.335415     -1.247981     -0.172754
  O      -1.296018      4.016638      0.009736
  O       1.895260      0.749958     -0.100573
  O      -1.350005     -2.384558     -0.346803
  O      -4.511609      0.814112     -0.257148
  C      -1.267989      0.902814     -1.986295
  O      -1.240182      0.961620     -3.150891
  F      -1.342203      0.739357      2.096549
12
Coordinates from ORCA-job MoCO5F- E -734.906094100798
  Mo     -1.312438      0.806053     -0.011850
  C      -1.299104      2.867883      0.047953
  C      -3.370511      0.816096     -0.117162
  C       0.748796      0.773996     -0.018946
  C      -1.334964     -1.248203     -0.172179
  O      -1.295859      4.016229      0.009458
  O       1.894900      0.750547     -0.101817
  O      -1.348508     -2.384600     -0.347730
  O      -4.511479      0.816123     -0.259119
  C      -1.268395      0.902368     -1.985496
  O      -1.240913      0.960635     -3.150176
  F      -1.342367      0.738593      2.097555
