15
Coordinates from ORCA-job MoCO5NH3 E -691.486618346113
  O      -1.163240      3.486520      0.328050
  O      -4.600720      0.474940     -0.441120
  C      -1.224810      2.373020      0.159180
  C      -3.479540      0.398070     -0.345480
  Mo     -1.342030      0.251060     -0.163490
  C      -1.557520     -0.051020      1.952540
  O      -1.670650     -0.209590      3.063590
  N      -1.122010      0.549070     -2.243260
  C       0.792250      0.100180      0.035660
  C      -1.465010     -1.873070     -0.469730
  O       1.912690      0.020770      0.139930
  O      -1.529530     -2.987710     -0.630550
  H      -2.054900      0.709310     -2.684080
  H      -0.513660      1.380430     -2.415130
  H      -0.677340     -0.291960     -2.674080
15
Coordinates from ORCA-job MoCO5NH3 E -691.504581834464
  O      -1.171920      3.464681      0.358031
  O      -4.586894      0.468508     -0.404713
  C      -1.232112      2.339804      0.179477
  C      -3.452489      0.392071     -0.316107
  Mo     -1.344657      0.248490     -0.144694
  C      -1.554024     -0.048717      1.934346
  O      -1.667236     -0.209413      3.058479
  N      -1.114732      0.556083     -2.291573
  C       0.758864      0.098658      0.056576
  C      -1.468843     -1.846438     -0.439858
  O       1.890937      0.017098      0.169562
  O      -1.536052     -2.974443     -0.594651
  H      -2.007713      0.713893     -2.742451
  H      -0.525866      1.359199     -2.480483
  H      -0.683281     -0.249454     -2.729912
15
Coordinates from ORCA-job MoCO5NH3 E -691.515415519479
  O      -1.183334      3.418263      0.401668
  O      -4.552008      0.458212     -0.350499
  C      -1.241398      2.287169      0.208952
  C      -3.408281      0.383289     -0.274023
  Mo     -1.348525      0.244433     -0.114509
  C      -1.548400     -0.043613      1.895469
  O      -1.660843     -0.206172      3.028845
  N      -1.106062      0.565437     -2.355021
  C       0.706172      0.096348      0.088342
  C      -1.472376     -1.803389     -0.395152
  O       1.844867      0.011898      0.215118
  O      -1.542365     -2.941115     -0.538066
  H      -1.982693      0.724276     -2.825298
  H      -0.522871      1.360268     -2.563852
  H      -0.677902     -0.225284     -2.809946
15
Coordinates from ORCA-job MoCO5NH3 E -691.517248569197
  O      -1.188183      3.395495      0.426051
  O      -4.535604      0.453126     -0.322229
  C      -1.245031      2.267096      0.224888
  C      -3.392465      0.379602     -0.254123
  Mo     -1.350685      0.242367     -0.098580
  C      -1.545462     -0.040680      1.872837
  O      -1.656811     -0.203754      3.006413
  N      -1.102323      0.570346     -2.388157
  C       0.685998      0.094512      0.105617
  C      -1.473596     -1.787976     -0.373394
  O       1.822261      0.008461      0.241275
  O      -1.544390     -2.925490     -0.507291
  H      -1.981545      0.730302     -2.866993
  H      -0.516380      1.369559     -2.603654
  H      -0.671804     -0.222945     -2.850630
15
Coordinates from ORCA-job MoCO5NH3 E -691.517653583474
  O      -1.188983      3.392361      0.437736
  O      -4.535290      0.451712     -0.311305
  C      -1.245313      2.267532      0.231425
  C      -3.394354      0.379142     -0.248581
  Mo     -1.351431      0.241835     -0.093836
  C      -1.544739     -0.039969      1.866432
  O      -1.655351     -0.203259      2.998758
  N      -1.101019      0.572784     -2.404710
  C       0.686328      0.093226      0.112674
  C      -1.473733     -1.789816     -0.366986
  O       1.819180      0.006211      0.254079
  O      -1.544582     -2.925426     -0.494762
  H      -1.983135      0.732369     -2.883128
  H      -0.514215      1.374322     -2.619212
  H      -0.669382     -0.223004     -2.866555
15
Coordinates from ORCA-job MoCO5NH3 E -691.517900824712
  O      -1.189061      3.393825      0.451745
  O      -4.539908      0.450636     -0.299764
  C      -1.244828      2.272497      0.237785
  C      -3.400513      0.379318     -0.244666
  Mo     -1.351943      0.241645     -0.091265
  C      -1.544347     -0.039656      1.862347
  O      -1.654128     -0.203457      2.994138
  N      -1.099696      0.575854     -2.425499
  C       0.691094      0.091635      0.119729
  C      -1.473590     -1.795850     -0.362038
  O       1.820647      0.003096      0.269695
  O      -1.544579     -2.930357     -0.481160
  H      -1.984922      0.733995     -2.899809
  H      -0.513112      1.379260     -2.635934
  H      -0.667134     -0.222420     -2.883274
15
Coordinates from ORCA-job MoCO5NH3 E -691.517975540184
  O      -1.188935      3.395722      0.460293
  O      -4.543626      0.450095     -0.292926
  C      -1.244347      2.275391      0.240607
  C      -3.403830      0.379593     -0.243271
  Mo     -1.351972      0.241802     -0.091663
  C      -1.544217     -0.039665      1.861214
  O      -1.653559     -0.203978      2.993537
  N      -1.098911      0.577809     -2.438587
  C       0.693816      0.090794      0.123111
  C      -1.473440     -1.799113     -0.360000
  O       1.822498      0.001020      0.279455
  O      -1.544743     -2.934325     -0.473031
  H      -1.985595      0.734267     -2.908881
  H      -0.513448      1.381882     -2.645412
  H      -0.665711     -0.221274     -2.892416
15
Coordinates from ORCA-job MoCO5NH3 E -691.518002422340
  O      -1.188882      3.396465      0.466253
  O      -4.545614      0.449666     -0.287890
  C      -1.243987      2.276387      0.241768
  C      -3.404921      0.379833     -0.242773
  Mo     -1.351779      0.242132     -0.093384
  C      -1.544086     -0.039746      1.860867
  O      -1.653112     -0.204542      2.993752
  N      -1.098334      0.579190     -2.447675
  C       0.694626      0.090349      0.124761
  C      -1.473395     -1.800155     -0.359055
  O       1.823144     -0.000537      0.286468
  O      -1.545138     -2.936503     -0.467052
  H      -1.986065      0.733680     -2.914532
  H      -0.514336      1.383917     -2.651452
  H      -0.664141     -0.220115     -2.898025
15
Coordinates from ORCA-job MoCO5NH3 E -691.518007423175
  O      -1.188900      3.395955      0.468420
  O      -4.545564      0.449448     -0.285760
  C      -1.243846      2.276014      0.241666
  C      -3.404461      0.379967     -0.242867
  Mo     -1.351585      0.242413     -0.094913
  C      -1.543945     -0.039772      1.860613
  O      -1.652804     -0.204829      2.993548
  N      -1.098098      0.579654     -2.450605
  C       0.694111      0.090273      0.124869
  C      -1.473479     -1.799622     -0.358997
  O       1.822527     -0.001206      0.289142
  O      -1.545531     -2.936489     -0.464530
  H      -1.986449      0.732699     -2.916079
  H      -0.515152      1.385093     -2.653095
  H      -0.662845     -0.219578     -2.899381
15
Coordinates from ORCA-job MoCO5NH3 E -691.518008684259
  O      -1.188892      3.395076      0.470109
  O      -4.545064      0.449263     -0.283897
  C      -1.243700      2.275452      0.241278
  C      -3.403764      0.380146     -0.243130
  Mo     -1.351385      0.242749     -0.096609
  C      -1.543729     -0.039742      1.859933
  O      -1.652398     -0.205086      2.992705
  N      -1.097908      0.579937     -2.452280
  C       0.693356      0.090247      0.124619
  C      -1.473653     -1.798777     -0.359164
  O       1.821484     -0.001844      0.291258
  O      -1.546030     -2.935940     -0.462323
  H      -1.986935      0.731162     -2.916852
  H      -0.516277      1.386450     -2.653840
  H      -0.661126     -0.219071     -2.899774
15
Coordinates from ORCA-job MoCO5NH3 E -691.518007901789
  O      -1.188820      3.394473      0.471306
  O      -4.544738      0.449169     -0.282545
  C      -1.243554      2.275212      0.240960
  C      -3.403421      0.380346     -0.243378
  Mo     -1.351265      0.243032     -0.097864
  C      -1.543518     -0.039660      1.858955
  O      -1.652017     -0.205276      2.991551
  N      -1.097786      0.580058     -2.452928
  C       0.692928      0.090205      0.124335
  C      -1.473849     -1.798251     -0.359368
  O       1.820711     -0.002393      0.292689
  O      -1.546469     -2.935507     -0.460720
  H      -1.987296      0.729551     -2.917210
  H      -0.517448      1.387645     -2.654087
  H      -0.659479     -0.218583     -2.899665
15
Coordinates from ORCA-job MoCO5NH3 E -691.518006159974
  O      -1.188658      3.394094      0.472623
  O      -4.544657      0.449131     -0.281122
  C      -1.243355      2.275242      0.240722
  C      -3.403355      0.380620     -0.243612
  Mo     -1.351180      0.243342     -0.099070
  C      -1.543287     -0.039534      1.857596
  O      -1.651597     -0.205501      2.990065
  N      -1.097672      0.580138     -2.453320
  C       0.692727      0.090112      0.124064
  C      -1.474100     -1.797940     -0.359571
  O       1.820121     -0.003064      0.294148
  O      -1.546960     -2.935260     -0.459036
  H      -1.987577      0.727483     -2.917653
  H      -0.519009      1.389022     -2.654355
  H      -0.657461     -0.217864     -2.899447
