13
	Energy:      -1.9845252
Mo        -1.33573        0.20929       -0.06216
C         -1.21402        2.33063        0.25555
C          0.79337        0.04970        0.17719
C         -1.45863       -1.91195       -0.37975
C         -3.46489        0.36735       -0.30155
O         -1.15044        3.44445        0.42211
O          1.91121       -0.03448        0.30262
O         -1.52342       -3.02570       -0.54626
O         -4.58283        0.44999       -0.42708
C         -1.59591       -0.09228        2.04901
N         -1.08526        0.49958       -2.09005
O         -1.73252       -0.25061        3.15745
O         -0.95128        0.65483       -3.17173
