13
Coordinates from ORCA-job WCO6 E -747.175719491153
  W      -1.376210      2.567220      0.107110
  C       0.708390      2.531170      0.309930
  C      -1.338340      4.661400      0.073760
  C      -3.460980      2.603160     -0.095720
  C      -1.415020      0.472960      0.140510
  C      -1.579940      2.605350      2.191680
  C      -1.171980      2.529100     -1.977390
  O      -1.689850      2.626190      3.314190
  O      -1.435730     -0.654660      0.158200
  O      -1.318320      5.789140      0.056030
  O      -1.061360      2.508310     -3.099690
  O      -4.583560      2.622770     -0.204550
  O       1.830950      2.511490      0.418660
13
Coordinates from ORCA-job WCO6 E -747.177885547294
  W      -1.376324      2.567207      0.107145
  C       0.688228      2.531723      0.308243
  C      -1.338410      4.641317      0.073875
  C      -3.440868      2.602641     -0.094004
  C      -1.414732      0.493045      0.140404
  C      -1.577828      2.604719      2.171570
  C      -1.174309      2.529724     -1.957303
  O      -1.688600      2.625617      3.304283
  O      -1.435651     -0.644915      0.158449
  O      -1.317949      5.779311      0.055841
  O      -1.062876      2.508884     -3.089926
  O      -4.573665      2.622349     -0.203990
  O       1.821035      2.511977      0.418134
13
Coordinates from ORCA-job WCO6 E -747.177999072983
  W      -1.376352      2.567195      0.107133
  C       0.698669      2.531692      0.309461
  C      -1.338003      4.651796      0.073546
  C      -3.451362      2.602680     -0.095248
  C      -1.414974      0.482588      0.140717
  C      -1.578714      2.604703      2.182093
  C      -1.173557      2.529723     -1.967809
  O      -1.689669      2.625554      3.317849
  O      -1.435993     -0.658440      0.158988
  O      -1.317279      5.792830      0.055367
  O      -1.062033      2.508931     -3.103514
  O      -4.587189      2.622374     -0.205678
  O       1.834506      2.511974      0.419816
13
Coordinates from ORCA-job WCO6 E -747.178043757363
  W      -1.376344      2.567195      0.107120
  C       0.695070      2.531796      0.309169
  C      -1.338017      4.648198      0.073566
  C      -3.447761      2.602574     -0.094968
  C      -1.414917      0.486194      0.140700
  C      -1.578320      2.604578      2.178498
  C      -1.173995      2.529842     -1.964226
  O      -1.689144      2.625379      3.313331
  O      -1.435944     -0.653897      0.159025
  O      -1.317235      5.788298      0.055377
  O      -1.062657      2.509096     -3.099008
  O      -4.582655      2.622231     -0.205372
  O       1.829969      2.512116      0.419508
13
Coordinates from ORCA-job WCO6 E -747.178043823888
  W      -1.376345      2.567195      0.107110
  C       0.694992      2.531861      0.309248
  C      -1.337940      4.648134      0.073517
  C      -3.447686      2.602513     -0.095059
  C      -1.414929      0.486259      0.140760
  C      -1.578254      2.604494      2.178426
  C      -1.174127      2.529923     -1.964180
  O      -1.689017      2.625249      3.313260
  O      -1.435985     -0.653826      0.159185
  O      -1.317045      5.788226      0.055289
  O      -1.062925      2.509220     -3.098972
  O      -4.582565      2.622138     -0.205556
  O       1.829876      2.512215      0.419692
