13
Coordinates from ORCA-job OsCO6 E -769.260652402203
  Os     -0.375190      0.918360      0.036640
  C       1.701670      0.955800      0.040210
  C      -0.412860      2.994880      0.074590
  C      -2.451970      0.879820      0.033050
  C      -0.338380     -1.158100     -0.001380
  O      -0.433340      4.122460      0.094830
  O       2.829470      0.976060      0.042110
  O      -0.318810     -2.285800     -0.021710
  O      -3.579790      0.858420      0.031120
  C      -0.371840      0.958350     -2.040130
  C      -0.377820      0.879480      2.113450
  O      -0.369830      0.980670     -3.167920
  O      -0.379120      0.858290      3.241250
13
Coordinates from ORCA-job OsCO6 E -769.261459649131
  Os     -0.375215      0.918357      0.036621
  C       1.679477      0.955552      0.040184
  C      -0.412351      2.972709      0.074459
  C      -2.429870      0.880781      0.033060
  C      -0.338369     -1.135945     -0.001234
  O      -0.432684      4.094770      0.094880
  O       2.801727      0.975814      0.042102
  O      -0.318556     -2.258027     -0.021624
  O      -3.552110      0.859714      0.031131
  C      -0.372144      0.957239     -2.018021
  C      -0.378018      0.879871      2.091280
  O      -0.370275      0.979142     -3.140244
  O      -0.379420      0.858714      3.213516
13
Coordinates from ORCA-job OsCO6 E -769.261581768918
  Os     -0.375222      0.918366      0.036612
  C       1.687982      0.955686      0.040198
  C      -0.412516      2.981222      0.074745
  C      -2.438407      0.880805      0.033027
  C      -0.338089     -1.144463     -0.001513
  O      -0.432858      4.102808      0.095326
  O       2.809756      0.975943      0.042130
  O      -0.318111     -2.266056     -0.021981
  O      -3.560167      0.859839      0.031091
  C      -0.372206      0.957167     -2.026556
  C      -0.378082      0.879805      2.099788
  O      -0.370379      0.978920     -3.148302
  O      -0.379513      0.858647      3.221546
13
Coordinates from ORCA-job OsCO6 E -769.261583266826
  Os     -0.375229      0.918377      0.036603
  C       1.687360      0.955627      0.040192
  C      -0.412529      2.980611      0.074807
  C      -2.437810      0.880901      0.033012
  C      -0.338050     -1.143847     -0.001569
  O      -0.432900      4.102383      0.095531
  O       2.809324      0.975878      0.042135
  O      -0.317933     -2.265628     -0.022101
  O      -3.559762      0.859987      0.031071
  C      -0.372233      0.957042     -2.025958
  C      -0.378093      0.879911      2.099168
  O      -0.370422      0.978703     -3.147897
  O      -0.379533      0.858744      3.221116
