!B3LYP def2-SVP OPT FREQ

* xyz +2 1 
Os        -0.37519        0.91836        0.03664
C          1.70167        0.95580        0.04021
C         -0.41286        2.99488        0.07459
C         -2.45197        0.87982        0.03305
C         -0.33838       -1.15810       -0.00138
O         -0.43334        4.12246        0.09483
O          2.82947        0.97606        0.04211
O         -0.31881       -2.28580       -0.02171
O         -3.57979        0.85842        0.03112
C         -0.37184        0.95835       -2.04013
C         -0.37782        0.87948        2.11345
O         -0.36983        0.98067       -3.16792
O         -0.37912        0.85829        3.24125
*