!B3LYP def2-SVP OPT FREQ

* xyz 0 1 
Mo        -1.16223        1.46231        0.00440
C         -1.14093        3.60205        0.19585
C          0.98556        1.43752        0.04741
C         -3.31010        1.48732       -0.03858
C         -1.18366       -0.67745       -0.18705
O         -1.12965        4.72557        0.29572
O          2.11331        1.42466        0.06986
O         -1.19503       -1.80094       -0.28692
O         -4.43774        1.50041       -0.06100
C         -1.11654        1.65584       -2.13477
C         -1.20787        1.26853        2.14358
O         -1.09237        1.75804       -3.25788
O         -1.23196        1.16609        3.26663
*