!B3LYP def2-SVP OPT FREQ

* xyz -2 1 
Hf        -0.43733        0.82114       -0.00327
C          1.85069        0.75179       -0.21043
C         -0.36713        3.11851        0.00002
C         -2.72538        0.89099        0.20388
C         -0.50743       -1.47623       -0.00656
O         -0.33267        4.24599        0.00163
O          2.97368        0.71783       -0.31146
O         -0.54180       -2.60370       -0.00817
O         -3.84828        0.92536        0.30489
C         -0.64818        0.83067       -2.29202
C         -0.22660        0.81111        2.28546
O         -0.75232        0.83529       -3.41517
O         -0.12255        0.80608        3.40866
*