13
Coordinates from ORCA-job HfCO6 E -727.104633792305
  Hf     -0.437330      0.821140     -0.003270
  C       1.850690      0.751790     -0.210430
  C      -0.367130      3.118510      0.000020
  C      -2.725380      0.890990      0.203880
  C      -0.507430     -1.476230     -0.006560
  O      -0.332670      4.245990      0.001630
  O       2.973680      0.717830     -0.311460
  O      -0.541800     -2.603700     -0.008170
  O      -3.848280      0.925360      0.304890
  C      -0.648180      0.830670     -2.292020
  C      -0.226600      0.811110      2.285460
  O      -0.752320      0.835290     -3.415170
  O      -0.122550      0.806080      3.408660
13
Coordinates from ORCA-job HfCO6 E -727.134598708413
  Hf     -0.437342      0.821141     -0.003264
  C       1.797823      0.753500     -0.205954
  C      -0.368751      3.065673      0.000001
  C      -2.672530      0.889263      0.199415
  C      -0.505840     -1.423398     -0.006532
  O      -0.332848      4.230580      0.001675
  O       2.958054      0.718419     -0.310589
  O      -0.541434     -2.588311     -0.008260
  O      -3.832727      0.924764      0.304037
  C      -0.642988      0.830379     -2.239542
  C      -0.231817      0.811427      2.232997
  O      -0.750432      0.835124     -3.400027
  O      -0.124469      0.806268      3.393504
13
Coordinates from ORCA-job HfCO6 E -727.135757070394
  Hf     -0.437385      0.821141     -0.003261
  C       1.804736      0.753267     -0.207010
  C      -0.368678      3.072553      0.000054
  C      -2.679483      0.889484      0.200479
  C      -0.505901     -1.430272     -0.006602
  O      -0.332217      4.247727      0.001753
  O       2.975163      0.717775     -0.312927
  O      -0.541810     -2.605462     -0.008417
  O      -3.849891      0.925391      0.306389
  C      -0.643144      0.830340     -2.246268
  C      -0.231728      0.811478      2.239763
  O      -0.751285      0.835105     -3.417015
  O      -0.123678      0.806303      3.410522
13
Coordinates from ORCA-job HfCO6 E -727.135802432641
  Hf     -0.437417      0.821143     -0.003251
  C       1.787248      0.753753     -0.205744
  C      -0.369313      3.055230      0.000053
  C      -2.662084      0.888986      0.199240
  C      -0.505195     -1.412953     -0.006617
  O      -0.332661      4.231614      0.001757
  O       2.958851      0.718111     -0.312070
  O      -0.541119     -2.589359     -0.008489
  O      -3.833674      0.925035      0.305564
  C      -0.641236      0.830230     -2.229230
  C      -0.233689      0.811607      2.222736
  O      -0.749252      0.834989     -3.401214
  O      -0.125760      0.806445      3.394726
13
Coordinates from ORCA-job HfCO6 E -727.135887711176
  Hf     -0.437426      0.821144     -0.003248
  C       1.795354      0.753491     -0.206544
  C      -0.369085      3.063314      0.000063
  C      -2.670217      0.889247      0.200050
  C      -0.505383     -1.421039     -0.006638
  O      -0.332437      4.238948      0.001767
  O       2.966204      0.717833     -0.312878
  O      -0.541273     -2.596696     -0.008521
  O      -3.841052      0.925309      0.306384
  C      -0.641904      0.830257     -2.237184
  C      -0.233045      0.811582      2.230693
  O      -0.749785      0.835013     -3.408426
  O      -0.125250      0.806425      3.401942
13
Coordinates from ORCA-job HfCO6 E -727.135887893997
  Hf     -0.437451      0.821144     -0.003242
  C       1.795166      0.753475     -0.206699
  C      -0.369140      3.063175      0.000066
  C      -2.670069      0.889256      0.200219
  C      -0.505264     -1.420900     -0.006664
  O      -0.332417      4.238802      0.001771
  O       2.965991      0.717736     -0.313221
  O      -0.541141     -2.596553     -0.008579
  O      -3.840880      0.925393      0.306744
  C      -0.641726      0.830238     -2.237076
  C      -0.233279      0.811611      2.230605
  O      -0.749450      0.834990     -3.408328
  O      -0.125640      0.806463      3.401863
