12
	Energy:      -1.5198483
Mo        -1.31350        0.80310       -0.04608
C         -1.29468        2.94876        0.06394
C         -3.46135        0.82385       -0.09599
C          0.83438        0.78176        0.00232
C         -1.33254       -1.34242       -0.15758
O         -1.28475        4.07521        0.12132
O          1.96204        0.77050        0.02744
O         -1.34270       -2.46890       -0.21615
O         -4.58900        0.83447       -0.12234
C         -1.26289        0.91449       -2.19106
O         -1.23618        0.97331       -3.31720
F         -1.35967        0.70159        1.92187
