13
Coordinates from ORCA-job PtCO6 E -797.961408306674
  Pt     -0.620850      1.010590      0.034820
  C      -0.617850      3.073420      0.179490
  C       1.446120      1.003640      0.096580
  C      -0.623950     -1.052240     -0.109860
  C      -2.687810      1.018190     -0.026890
  O      -0.616200      4.198700      0.257850
  O       2.573620      1.000080      0.130050
  O      -0.625720     -2.177530     -0.188230
  O      -3.815320      1.022480     -0.060310
  C      -0.557820      1.156810     -2.026940
  C      -0.683770      0.863700      2.096540
  O      -0.523170      1.236950     -3.151560
  O      -0.718300      0.782850      3.221120
13
Coordinates from ORCA-job PtCO6 E -798.045079871834
  Pt     -0.639983      1.010412      0.034242
  C      -0.612291      3.129158      0.180650
  C       1.502688      1.003647      0.098191
  C      -0.618873     -1.107592     -0.110509
  C      -2.723354      1.018378     -0.028003
  O      -0.605405      4.283374      0.250031
  O       2.658331      1.000125      0.132469
  O      -0.616291     -2.261899     -0.179397
  O      -3.881737      1.022758     -0.061890
  C      -0.568222      1.163882     -2.090927
  C      -0.698258      0.856384      2.159422
  O      -0.533326      1.257193     -3.238952
  O      -0.734299      0.761821      3.307333
13
Coordinates from ORCA-job PtCO6 E -798.097513531546
  Pt     -0.671940      1.010210      0.033489
  C      -0.599686      3.189701      0.174383
  C       1.547744      1.003696      0.099350
  C      -0.607215     -1.168361     -0.103479
  C      -2.789761      1.018722     -0.030272
  O      -0.581392      4.356046      0.210933
  O       2.716823      1.000353      0.133903
  O      -0.595595     -2.334877     -0.138433
  O      -3.961919      1.023069     -0.063836
  C      -0.568983      1.178135     -2.153506
  C      -0.703103      0.842517      2.221682
  O      -0.524867      1.307903     -3.310154
  O      -0.731126      0.710526      3.378600
13
Coordinates from ORCA-job PtCO6 E -798.135230478582
  Pt     -0.713377      1.009941      0.032820
  C      -0.583745      3.246014      0.164312
  C       1.580479      1.003543      0.099914
  C      -0.592366     -1.225038     -0.093137
  C      -2.856021      1.018883     -0.033024
  O      -0.551393      4.417551      0.138717
  O       2.756599      1.000334      0.134657
  O      -0.570864     -2.396780     -0.064115
  O      -4.035229      1.023032     -0.065573
  C      -0.567681      1.194488     -2.213527
  C      -0.705732      0.827798      2.282272
  O      -0.510384      1.391110     -3.366864
  O      -0.721307      0.626765      3.436208
13
Coordinates from ORCA-job PtCO6 E -798.165468561532
  Pt     -0.761381      1.009510      0.032273
  C      -0.567767      3.292318      0.151361
  C       1.602254      1.003411      0.099897
  C      -0.577579     -1.271729     -0.080749
  C      -2.904130      1.018974     -0.035664
  O      -0.522130      4.460745      0.034580
  O       2.781393      1.000288      0.135322
  O      -0.548724     -2.440088      0.042616
  O      -4.086714      1.022787     -0.066082
  C      -0.568408      1.210423     -2.268936
  C      -0.710213      0.814556      2.338410
  O      -0.496495      1.504885     -3.403520
  O      -0.711126      0.511559      3.473151
13
Coordinates from ORCA-job PtCO6 E -798.192244136041
  Pt     -0.810223      1.008957      0.031546
  C      -0.551190      3.328185      0.136617
  C       1.611941      1.003802      0.099605
  C      -0.562402     -1.308210     -0.067253
  C      -2.933809      1.019283     -0.037796
  O      -0.495540      4.481431     -0.089589
  O       2.791353      1.000821      0.136977
  O      -0.530670     -2.460224      0.170469
  O      -4.117603      1.022668     -0.064432
  C      -0.570802      1.224144     -2.319183
  C      -0.716123      0.803592      2.388458
  O      -0.484530      1.636555     -3.416106
  O      -0.701422      0.376636      3.483347
13
Coordinates from ORCA-job PtCO6 E -798.217211134058
  Pt     -0.854964      1.008099      0.030564
  C      -0.533891      3.355966      0.122652
  C       1.610672      1.003923      0.098351
  C      -0.546546     -1.337473     -0.054487
  C      -2.943789      1.018989     -0.039539
  O      -0.474641      4.479775     -0.219955
  O       2.788244      1.000744      0.138768
  O      -0.518916     -2.457209      0.306244
  O      -4.127195      1.021459     -0.060975
  C      -0.574734      1.235067     -2.365515
  C      -0.723755      0.796441      2.433859
  O      -0.476674      1.773709     -3.404015
  O      -0.694831      0.238150      3.466709
13
Coordinates from ORCA-job PtCO6 E -798.240829638298
  Pt     -0.893707      1.007489      0.029954
  C      -0.516715      3.378041      0.109216
  C       1.597112      1.004212      0.096126
  C      -0.530799     -1.360586     -0.043012
  C      -2.933533      1.018512     -0.040323
  O      -0.462118      4.457665     -0.350922
  O       2.771909      1.000384      0.140526
  O      -0.515598     -2.431621      0.441122
  O      -4.116050      1.019512     -0.055618
  C      -0.578203      1.243650     -2.407930
  C      -0.731494      0.790317      2.476052
  O      -0.471405      1.906948     -3.368265
  O      -0.690418      0.103118      3.425733
13
Coordinates from ORCA-job PtCO6 E -798.263040977621
  Pt     -0.924362      1.007333      0.029100
  C      -0.498902      3.397155      0.098517
  C       1.569804      1.006362      0.093855
  C      -0.514893     -1.380499     -0.033597
  C      -2.903092      1.019020     -0.039565
  O      -0.457669      4.420012     -0.473446
  O       2.742007      1.002068      0.144449
  O      -0.520689     -2.388529      0.567505
  O      -4.085159      1.018510     -0.047371
  C      -0.581088      1.247987     -2.448011
  C      -0.738399      0.784267      2.513845
  O      -0.469977      2.025645     -3.314851
  O      -0.688601     -0.021691      3.362231
13
Coordinates from ORCA-job PtCO6 E -798.283215748773
  Pt     -0.943259      1.007051      0.027572
  C      -0.478595      3.414562      0.087673
  C       1.528533      1.008248      0.089582
  C      -0.497511     -1.399207     -0.020036
  C      -2.858018      1.018675     -0.039261
  O      -0.460124      4.368705     -0.589856
  O       2.699310      1.002713      0.148362
  O      -0.533307     -2.329125      0.692175
  O      -4.040797      1.015576     -0.039411
  C      -0.582058      1.255640     -2.485995
  C      -0.742596      0.774133      2.546956
  O      -0.473147      2.137086     -3.244542
  O      -0.689452     -0.136415      3.279440
13
Coordinates from ORCA-job PtCO6 E -798.300500170784
  Pt     -0.946434      1.007200      0.026360
  C      -0.457720      3.433824      0.076408
  C       1.472095      1.010379      0.083126
  C      -0.480195     -1.418178     -0.002378
  C      -2.809915      1.018856     -0.039894
  O      -0.471382      4.306910     -0.699585
  O       2.642351      1.002582      0.151580
  O      -0.553825     -2.255388      0.811654
  O      -3.994087      1.012334     -0.033376
  C      -0.573926      1.267336     -2.523066
  C      -0.736735      0.755760      2.578758
  O      -0.474487      2.237301     -3.163126
  O      -0.686760     -0.241279      3.186199
13
Coordinates from ORCA-job PtCO6 E -798.314518722958
  Pt     -0.932272      1.006183      0.027002
  C      -0.436063      3.454951      0.061212
  C       1.401726      1.013116      0.077381
  C      -0.462057     -1.442360      0.013950
  C      -2.769875      1.020662     -0.039641
  O      -0.487641      4.236657     -0.802767
  O       2.572008      1.003016      0.156068
  O      -0.575335     -2.184352      0.909476
  O      -3.955331      1.011927     -0.027717
  C      -0.554499      1.286257     -2.559001
  C      -0.719418      0.732836      2.613523
  O      -0.472126      2.325076     -3.079399
  O      -0.680137     -0.326330      3.102574
13
Coordinates from ORCA-job PtCO6 E -798.326434614528
  Pt     -0.900267      1.004835      0.027252
  C      -0.416932      3.485376      0.057524
  C       1.322510      1.013314      0.071915
  C      -0.445318     -1.475452      0.018378
  C      -2.727707      1.021391     -0.039718
  O      -0.508045      4.190484     -0.864508
  O       2.492961      0.999525      0.159718
  O      -0.596358     -2.142743      0.963251
  O      -3.913057      1.010018     -0.024425
  C      -0.530271      1.300289     -2.602437
  C      -0.696660      0.721117      2.654375
  O      -0.473717      2.379765     -3.030518
  O      -0.678161     -0.370279      3.061853
13
Coordinates from ORCA-job PtCO6 E -798.337031837554
  Pt     -0.852740      1.002831      0.028559
  C      -0.401739      3.520378      0.064180
  C       1.243470      1.010196      0.071673
  C      -0.430800     -1.514157     -0.000560
  C      -2.684767      1.020306     -0.036746
  O      -0.533133      4.170166     -0.891770
  O       2.415846      0.991362      0.167362
  O      -0.617324     -2.142830      0.962778
  O      -3.870259      1.006268     -0.019948
  C      -0.504396      1.306932     -2.649383
  C      -0.671635      0.730489      2.701660
  O      -0.480772      2.406427     -3.021709
  O      -0.682771     -0.370727      3.076564
13
Coordinates from ORCA-job PtCO6 E -798.344245648153
  Pt     -0.786731      1.006078      0.026654
  C      -0.393682      3.566763      0.089237
  C       1.180474      1.010089      0.074251
  C      -0.422394     -1.549032     -0.015993
  C      -2.646457      1.022032     -0.031830
  O      -0.568109      4.190896     -0.876481
  O       2.356225      0.986040      0.174471
  O      -0.648709     -2.158789      0.950458
  O      -3.832352      1.004146     -0.014839
  C      -0.475765      1.294305     -2.706553
  C      -0.643620      0.735229      2.742260
  O      -0.494150      2.396782     -3.066435
  O      -0.695748     -0.366900      3.107458
13
Coordinates from ORCA-job PtCO6 E -798.346091814172
  Pt     -0.720778      1.007239      0.026893
  C      -0.406482      3.607118      0.098299
  C       1.181300      1.008212      0.080583
  C      -0.435474     -1.580683     -0.021175
  C      -2.610381      1.021355     -0.026034
  O      -0.620576      4.221530     -0.864860
  O       2.359138      0.980884      0.176131
  O      -0.698913     -2.190716      0.934732
  O      -3.795336      1.000704     -0.011563
  C      -0.454757      1.296057     -2.752650
  C      -0.625731      0.733276      2.777649
  O      -0.518998      2.393734     -3.119201
  O      -0.724031     -0.361070      3.153855
13
Coordinates from ORCA-job PtCO6 E -798.347333098523
  Pt     -0.682398      1.007001      0.028321
  C      -0.430177      3.630692      0.093639
  C       1.227593      1.006244      0.085747
  C      -0.460550     -1.597579     -0.012050
  C      -2.583612      1.019462     -0.023009
  O      -0.666976      4.249841     -0.861192
  O       2.406704      0.978376      0.172275
  O      -0.745737     -2.216608      0.931819
  O      -3.767952      0.997582     -0.012533
  C      -0.448569      1.307772     -2.777592
  C      -0.622700      0.721245      2.797704
  O      -0.543615      2.397838     -3.160876
  O      -0.753031     -0.364226      3.190406
13
Coordinates from ORCA-job PtCO6 E -798.348794708150
  Pt     -0.605086      1.003994      0.033563
  C      -0.484153      3.686154      0.067806
  C       1.311256      1.001462      0.093781
  C      -0.518767     -1.639081      0.022837
  C      -2.505194      1.014658     -0.018558
  O      -0.765661      4.298662     -0.878468
  O       2.492303      0.973573      0.158284
  O      -0.846854     -2.261434      0.949886
  O      -3.688268      0.991612     -0.020446
  C      -0.436623      1.351779     -2.834747
  C      -0.617144      0.678381      2.851586
  O      -0.594632      2.428724     -3.234108
  O      -0.812197     -0.390845      3.261244
13
Coordinates from ORCA-job PtCO6 E -798.349605899044
  Pt     -0.554146      0.998164      0.039342
  C      -0.514514      3.726530      0.032774
  C       1.364123      0.997019      0.098269
  C      -0.553187     -1.670527      0.061963
  C      -2.463436      1.010063     -0.017046
  O      -0.821198      4.315579     -0.920079
  O       2.546207      0.971472      0.145524
  O      -0.905834     -2.275230      0.991494
  O      -3.646785      0.988886     -0.030996
  C      -0.431179      1.399562     -2.880345
  C      -0.615613      0.633695      2.900708
  O      -0.627087      2.476451     -3.261654
  O      -0.848371     -0.434024      3.292707
13
Coordinates from ORCA-job PtCO6 E -798.350713210770
  Pt     -0.501538      0.984956      0.048608
  C      -0.546150      3.785591     -0.032614
  C       1.415221      0.990381      0.102936
  C      -0.590898     -1.721440      0.125860
  C      -2.408378      1.003729     -0.016039
  O      -0.871488      4.335788     -0.999962
  O       2.597394      0.972178      0.128613
  O      -0.961554     -2.295680      1.065697
  O      -3.591025      0.990238     -0.048884
  C      -0.434409      1.479137     -2.947840
  C      -0.622302      0.561135      2.979866
  O      -0.665978      2.561198     -3.286321
  O      -0.889915     -0.509571      3.332740
13
Coordinates from ORCA-job PtCO6 E -798.351709016628
  Pt     -0.480142      0.967383      0.057349
  C      -0.554483      3.841968     -0.102488
  C       1.433952      0.984924      0.105531
  C      -0.604374     -1.774257      0.186735
  C      -2.383721      0.999809     -0.016540
  O      -0.878310      4.357450     -1.087714
  O       2.616788      0.978449      0.117699
  O      -0.971972     -2.320434      1.143342
  O      -3.566561      1.000230     -0.066222
  C      -0.447186      1.554192     -3.014096
  C      -0.636187      0.490800      3.062004
  O      -0.687651      2.648362     -3.299170
  O      -0.911172     -0.591236      3.366230
13
Coordinates from ORCA-job PtCO6 E -798.352692534421
  Pt     -0.489370      0.948537      0.063384
  C      -0.542122      3.901966     -0.149462
  C       1.422265      0.983491      0.105501
  C      -0.595929     -1.826018      0.232698
  C      -2.385623      1.001105     -0.019140
  O      -0.850057      4.405056     -1.143138
  O       2.604446      0.992204      0.113578
  O      -0.942461     -2.358362      1.202538
  O      -3.567183      1.020914     -0.080848
  C      -0.465374      1.599214     -3.090126
  C      -0.655157      0.430420      3.146512
  O      -0.691255      2.703348     -3.337519
  O      -0.913200     -0.664235      3.408681
13
Coordinates from ORCA-job PtCO6 E -798.353796485303
  Pt     -0.541235      0.926627      0.067453
  C      -0.496487      3.958977     -0.173690
  C       1.370494      0.987608      0.104078
  C      -0.554461     -1.872813      0.254516
  C      -2.433156      1.007971     -0.022828
  O      -0.770637      4.468384     -1.172732
  O       2.552787      1.016709      0.120328
  O      -0.858632     -2.409294      1.235747
  O      -3.614538      1.053693     -0.088432
  C      -0.488553      1.611714     -3.173013
  C      -0.678534      0.385625      3.234334
  O      -0.669975      2.728835     -3.394912
  O      -0.888092     -0.726397      3.461812
13
Coordinates from ORCA-job PtCO6 E -798.354652749450
  Pt     -0.603662      0.902229      0.071376
  C      -0.437850      4.008088     -0.198629
  C       1.309501      0.994652      0.108080
  C      -0.503748     -1.906262      0.260611
  C      -2.495083      1.015136     -0.021644
  O      -0.674347      4.521837     -1.203100
  O       2.490076      1.047974      0.139474
  O      -0.760404     -2.457966      1.246003
  O      -3.674855      1.088488     -0.082307
  C      -0.514900      1.618677     -3.256737
  C      -0.704130      0.342032      3.323159
  O      -0.644010      2.745661     -3.458564
  O      -0.857607     -0.782903      3.524938
13
Coordinates from ORCA-job PtCO6 E -798.355307530013
  Pt     -0.652944      0.879099      0.075169
  C      -0.384337      4.057752     -0.233055
  C       1.258802      1.003198      0.119632
  C      -0.464617     -1.924497      0.269027
  C      -2.542110      1.019591     -0.014231
  O      -0.591849      4.569036     -1.244555
  O       2.437660      1.081474      0.167795
  O      -0.681357     -2.494141      1.254312
  O      -3.720657      1.117828     -0.064730
  C      -0.540070      1.630814     -3.342462
  C      -0.727191      0.283550      3.408242
  O      -0.626547      2.764007     -3.531044
  O      -0.835802     -0.850071      3.588560
13
Coordinates from ORCA-job PtCO6 E -798.355956177303
  Pt     -0.697009      0.856109      0.079897
  C      -0.328352      4.104927     -0.276784
  C       1.213201      1.015747      0.140806
  C      -0.432810     -1.922612      0.270698
  C      -2.584957      1.021272      0.000559
  O      -0.511734      4.607530     -1.296163
  O       2.388038      1.121069      0.212163
  O      -0.612071     -2.517795      1.248529
  O      -3.761358      1.142054     -0.031731
  C      -0.566217      1.641150     -3.427502
  C      -0.748151      0.214860      3.489447
  O      -0.612832      2.777126     -3.609352
  O      -0.816767     -0.923797      3.652094
13
Coordinates from ORCA-job PtCO6 E -798.356785848343
  Pt     -0.746675      0.833851      0.085377
  C      -0.259300      4.143494     -0.327367
  C       1.160606      1.038519      0.176627
  C      -0.405581     -1.884742      0.256446
  C      -2.633923      1.021108      0.026479
  O      -0.419861      4.632575     -1.356974
  O       2.328573      1.175785      0.285054
  O      -0.543595     -2.521153      1.216317
  O      -3.808091      1.161834      0.027093
  C      -0.593042      1.636514     -3.508494
  C      -0.764107      0.134675      3.558951
  O      -0.595164      2.772524     -3.696780
  O      -0.790858     -1.007346      3.709930
13
Coordinates from ORCA-job PtCO6 E -798.358702206351
  Pt     -0.771621      0.808071      0.093357
  C      -0.201900      4.146422     -0.403937
  C       1.123301      1.097972      0.237814
  C      -0.433557     -1.781252      0.237874
  C      -2.651425      1.019315      0.072215
  O      -0.357768      4.601905     -1.446464
  O       2.276660      1.282097      0.402721
  O      -0.549177     -2.462183      1.170885
  O      -3.822712      1.174479      0.117304
  C      -0.603919      1.605831     -3.543899
  C      -0.743088      0.025646      3.568763
  O      -0.576868      2.737537     -3.742612
  O      -0.758947     -1.118199      3.688640
13
Coordinates from ORCA-job PtCO6 E -798.359088929721
  Pt     -0.750026      0.786919      0.104598
  C      -0.196847      4.196083     -0.491659
  C       1.133556      1.109915      0.258820
  C      -0.445295     -1.823726      0.281552
  C      -2.626979      1.019670      0.082920
  O      -0.361018      4.623447     -1.544400
  O       2.283677      1.316929      0.426211
  O      -0.562637     -2.504330      1.215402
  O      -3.796582      1.193362      0.123334
  C      -0.618375      1.670258     -3.611906
  C      -0.755313     -0.055671      3.652218
  O      -0.594740      2.806950     -3.779508
  O      -0.780441     -1.202167      3.735079
13
Coordinates from ORCA-job PtCO6 E -798.359345283605
  Pt     -0.713260      0.774963      0.122722
  C      -0.198795      4.252358     -0.572098
  C       1.161958      1.116357      0.277969
  C      -0.459905     -1.858028      0.319847
  C      -2.592618      1.016418      0.089295
  O      -0.377097      4.654883     -1.634077
  O       2.309960      1.339424      0.442831
  O      -0.586220     -2.555003      1.241958
  O      -3.760610      1.200604      0.124620
  C      -0.637443      1.730336     -3.676467
  C      -0.775236     -0.128599      3.743815
  O      -0.623962      2.871077     -3.826049
  O      -0.817793     -1.277151      3.798294
13
Coordinates from ORCA-job PtCO6 E -798.359614708334
  Pt     -0.676185      0.765576      0.140080
  C      -0.199425      4.311912     -0.642177
  C       1.191785      1.128197      0.296841
  C      -0.477229     -1.879280      0.365767
  C      -2.555409      1.016597      0.095169
  O      -0.390337      4.694757     -1.708235
  O       2.335481      1.368212      0.461381
  O      -0.612221     -2.584304      1.279677
  O      -3.720528      1.211376      0.126251
  C      -0.660852      1.773203     -3.747548
  C      -0.795760     -0.217596      3.827174
  O      -0.656087      2.914716     -3.885564
  O      -0.854254     -1.365724      3.843842
13
Coordinates from ORCA-job PtCO6 E -798.359834439366
  Pt     -0.629713      0.762994      0.161109
  C      -0.205148      4.376329     -0.697670
  C       1.233301      1.137769      0.313330
  C      -0.493292     -1.894955      0.409125
  C      -2.510817      1.018858      0.097429
  O      -0.411675      4.745430     -1.765983
  O       2.374565      1.390582      0.473717
  O      -0.641685     -2.613440      1.310452
  O      -3.673964      1.221113      0.122550
  C      -0.689152      1.802876     -3.820346
  C      -0.824214     -0.303836      3.912327
  O      -0.697754      2.945038     -3.956578
  O      -0.901472     -1.451120      3.893198
13
Coordinates from ORCA-job PtCO6 E -798.360037093742
  Pt     -0.584172      0.759122      0.183677
  C      -0.209699      4.434262     -0.757129
  C       1.274990      1.147830      0.332123
  C      -0.505766     -1.907763      0.447540
  C      -2.465820      1.023029      0.101239
  O      -0.431231      4.788180     -1.826818
  O       2.413086      1.413938      0.489632
  O      -0.666375     -2.637444      1.336731
  O      -3.626483      1.234674      0.119813
  C      -0.721894      1.833068     -3.890792
  C      -0.857138     -0.391100      3.997641
  O      -0.741011      2.975448     -4.021740
  O      -0.949508     -1.535604      3.940744
13
Coordinates from ORCA-job PtCO6 E -798.360244399438
  Pt     -0.535929      0.756342      0.207679
  C      -0.214694      4.489393     -0.814141
  C       1.319169      1.157104      0.352870
  C      -0.514144     -1.916889      0.480537
  C      -2.417683      1.029753      0.106173
  O      -0.452253      4.829199     -1.884592
  O       2.454400      1.435741      0.507918
  O      -0.688000     -2.658856      1.356355
  O      -3.575899      1.251507      0.118196
  C      -0.759255      1.858522     -3.960937
  C      -0.896129     -0.477271      4.082301
  O      -0.788740      3.001163     -4.088059
  O      -1.001863     -1.618068      3.988361
13
Coordinates from ORCA-job PtCO6 E -798.363463985849
  Pt     -0.563662      0.735308      0.218983
  C      -0.141592      4.463116     -0.857527
  C       1.272093      1.212808      0.413422
  C      -0.522566     -1.797582      0.414985
  C      -2.441244      1.043416      0.159423
  O      -0.383567      4.785956     -1.932762
  O       2.388111      1.530788      0.623766
  O      -0.679232     -2.602619      1.241215
  O      -3.595480      1.280734      0.222932
  C      -0.783069      1.788963     -3.973996
  C      -0.869682     -0.545778      4.077486
  O      -0.781635      2.929368     -4.127710
  O      -0.969495     -1.686837      3.972442
13
Coordinates from ORCA-job PtCO6 E -798.363664503277
  Pt     -0.514550      0.730687      0.242454
  C      -0.147362      4.513677     -0.915911
  C       1.315143      1.222153      0.436606
  C      -0.523420     -1.807448      0.448016
  C      -2.391262      1.052664      0.164263
  O      -0.405308      4.822948     -1.990693
  O       2.427289      1.553507      0.645319
  O      -0.693821     -2.621411      1.261784
  O      -3.542586      1.302243      0.219303
  C      -0.823196      1.813961     -4.043340
  C      -0.915152     -0.632403      4.159434
  O      -0.831335      2.954874     -4.190599
  O      -1.025459     -1.767814      4.016025
13
Coordinates from ORCA-job PtCO6 E -798.363863022463
  Pt     -0.461978      0.726976      0.266692
  C      -0.155540      4.561781     -0.973126
  C       1.362036      1.229377      0.460277
  C      -0.520403     -1.814270      0.482006
  C      -2.337529      1.063768      0.168627
  O      -0.430333      4.858184     -2.046947
  O       2.470936      1.572935      0.666138
  O      -0.705716     -2.636179      1.283813
  O      -3.485785      1.326244      0.213466
  C      -0.867446      1.837539     -4.110864
  C      -0.967517     -0.719534      4.238175
  O      -0.885565      2.979080     -4.251665
  O      -1.086181     -1.848261      4.056068
13
Coordinates from ORCA-job PtCO6 E -798.364009453021
  Pt     -0.406480      0.724739      0.291568
  C      -0.166190      4.607465     -1.031980
  C       1.412619      1.235469      0.485267
  C      -0.514468     -1.819773      0.516626
  C      -2.280228      1.076548      0.173590
  O      -0.458225      4.890957     -2.104461
  O       2.518596      1.590106      0.687714
  O      -0.715464     -2.648931      1.306527
  O      -3.425130      1.352136      0.207659
  C      -0.915204      1.861274     -4.175591
  C      -1.026208     -0.807268      4.312954
  O      -0.943398      3.003339     -4.310466
  O      -1.151239     -1.928420      4.093254
13
Coordinates from ORCA-job PtCO6 E -798.364118946524
  Pt     -0.349607      0.723875      0.317342
  C      -0.177216      4.650486     -1.094432
  C       1.464754      1.242059      0.511988
  C      -0.507144     -1.823658      0.551769
  C      -2.221232      1.090444      0.180004
  O      -0.486456      4.920170     -2.165443
  O       2.567746      1.607357      0.711434
  O      -0.723742     -2.659806      1.329519
  O      -3.362578      1.378923      0.203918
  C      -0.965812      1.885537     -4.236940
  C      -1.088666     -0.896566      4.383294
  O      -1.002923      3.028025     -4.366393
  O      -1.218144     -2.009207      4.126601
13
Coordinates from ORCA-job PtCO6 E -798.364201559047
  Pt     -0.291673      0.724496      0.344386
  C      -0.188223      4.690706     -1.160071
  C       1.518047      1.249474      0.540444
  C      -0.498648     -1.825491      0.587031
  C      -2.160871      1.105649      0.188006
  O      -0.514584      4.945798     -2.229406
  O       2.617981      1.625100      0.737239
  O      -0.730608     -2.668711      1.352037
  O      -3.298461      1.406792      0.202322
  C      -1.019233      1.909471     -4.294751
  C      -1.154450     -0.987407      4.449202
  O      -1.063909      3.052280     -4.419442
  O      -1.286389     -2.090517      4.155663
13
Coordinates from ORCA-job PtCO6 E -798.364271664571
  Pt     -0.232139      0.727053      0.373172
  C      -0.199853      4.728123     -1.227275
  C       1.573295      1.257477      0.570723
  C      -0.488229     -1.824386      0.621712
  C      -2.098457      1.123250      0.197766
  O      -0.543456      4.968413     -2.294484
  O       2.670296      1.642792      0.764778
  O      -0.735585     -2.675128      1.372822
  O      -3.231983      1.437211      0.202563
  C      -1.075931      1.930789     -4.349064
  C      -1.224804     -1.079670      4.510448
  O      -1.127314      3.073752     -4.470041
  O      -1.356859     -2.172036      4.179540
13
Coordinates from ORCA-job PtCO6 E -798.364336451631
  Pt     -0.170258      0.732239      0.404146
  C      -0.213186      4.762735     -1.294752
  C       1.631665      1.265835      0.603088
  C      -0.474932     -1.819476      0.655573
  C      -2.033019      1.144946      0.209890
  O      -0.574356      4.988431     -2.359211
  O       2.726127      1.659761      0.793883
  O      -0.738110     -2.678175      1.391422
  O      -3.161999      1.472487      0.204957
  C      -1.136375      1.946875     -4.399859
  C      -1.301564     -1.173853      4.565885
  O      -1.194286      3.089770     -4.518516
  O      -1.430726     -2.253935      4.196156
13
Coordinates from ORCA-job PtCO6 E -798.364396853494
  Pt     -0.105452      0.740810      0.437796
  C      -0.229183      4.794161     -1.362216
  C       1.694123      1.274484      0.637953
  C      -0.457826     -1.810060      0.688487
  C      -1.963690      1.172495      0.225405
  O      -0.608408      5.005497     -2.423240
  O       2.786696      1.675479      0.824702
  O      -0.737541     -2.677146      1.407491
  O      -3.087446      1.514987      0.210612
  C      -1.200983      1.955730     -4.446683
  C      -1.386597     -1.270605      4.613808
  O      -1.265728      3.098307     -4.564649
  O      -1.508984     -2.336497      4.203193
13
Coordinates from ORCA-job PtCO6 E -798.364460088657
  Pt     -0.036705      0.753771      0.474957
  C      -0.249441      4.821415     -1.428488
  C       1.762193      1.283030      0.675790
  C      -0.434944     -1.795283      0.718928
  C      -1.888938      1.208173      0.245370
  O      -0.647511      5.018854     -2.485207
  O       2.853919      1.688771      0.857212
  O      -0.732262     -2.671933      1.418245
  O      -3.006468      1.567765      0.220371
  C      -1.270564      1.954586     -4.488469
  C      -1.483252     -1.369227      4.652592
  O      -1.343291      3.096497     -4.607728
  O      -1.593756     -2.418778      4.199087
13
Coordinates from ORCA-job PtCO6 E -798.364569103280
  Pt      0.042313      0.775262      0.518343
  C      -0.283100      4.842463     -1.483230
  C       1.844521      1.288667      0.718010
  C      -0.397377     -1.771037      0.739707
  C      -1.800444      1.261549      0.272256
  O      -0.702315      5.029127     -2.533628
  O       2.938175      1.693333      0.890133
  O      -0.715802     -2.661069      1.411335
  O      -2.909291      1.643777      0.234369
  C      -1.348194      1.928192     -4.522349
  C      -1.607124     -1.465311      4.676820
  O      -1.435675      3.068367     -4.646678
  O      -1.696708     -2.495680      4.177571
13
Coordinates from ORCA-job PtCO6 E -798.364824592850
  Pt      0.082440      0.797304      0.530813
  C      -0.340224      4.833590     -1.426389
  C       1.897458      1.272225      0.727106
  C      -0.347091     -1.744642      0.702813
  C      -1.749064      1.318739      0.288317
  O      -0.769331      5.035722     -2.469771
  O       3.000109      1.657577      0.886192
  O      -0.682094     -2.647009      1.348676
  O      -2.849515      1.722461      0.239637
  C      -1.363236      1.839520     -4.511724
  C      -1.697662     -1.448379      4.646839
  O      -1.485588      2.974894     -4.646136
  O      -1.767221     -2.474361      4.136288
13
Coordinates from ORCA-job PtCO6 E -798.365007286221
  Pt      0.080149      0.802118      0.511185
  C      -0.390946      4.801719     -1.362501
  C       1.905212      1.250399      0.715600
  C      -0.319981     -1.736768      0.657982
  C      -1.744717      1.349133      0.299013
  O      -0.817986      5.019014     -2.403941
  O       3.014404      1.617110      0.875723
  O      -0.661458     -2.639636      1.300398
  O      -2.841957      1.764893      0.258714
  C      -1.324567      1.788134     -4.485105
  C      -1.714512     -1.381827      4.600574
  O      -1.475023      2.920013     -4.621845
  O      -1.779637     -2.416662      4.106862
13
Coordinates from ORCA-job PtCO6 E -798.370278629723
  Pt      0.069122      0.762906      0.509018
  C      -0.335224      4.761178     -1.397950
  C       1.876680      1.268301      0.755858
  C      -0.301920     -1.631787      0.593016
  C      -1.732076      1.396554      0.364182
  O      -0.775284      4.974320     -2.433945
  O       2.969667      1.658788      0.965133
  O      -0.633022     -2.578309      1.180765
  O      -2.814676      1.853215      0.378196
  C      -1.378984      1.714518     -4.489118
  C      -1.723620     -1.432738      4.589371
  O      -1.505797      2.847541     -4.636408
  O      -1.785885     -2.456846      4.074541
13
Coordinates from ORCA-job PtCO6 E -798.370404991014
  Pt      0.031321      0.750062      0.487027
  C      -0.330774      4.745276     -1.395478
  C       1.837464      1.260587      0.737064
  C      -0.322053     -1.642995      0.589845
  C      -1.773563      1.374741      0.359559
  O      -0.758460      4.956171     -2.438196
  O       2.929829      1.649932      0.953329
  O      -0.642878     -2.585655      1.191323
  O      -2.860149      1.822947      0.387195
  C      -1.332218      1.748367     -4.474576
  C      -1.661627     -1.394555      4.580985
  O      -1.452478      2.883564     -4.616206
  O      -1.735434     -2.430803      4.090788
13
Coordinates from ORCA-job PtCO6 E -798.370453434513
  Pt      0.057356      0.758451      0.501360
  C      -0.364288      4.739075     -1.449127
  C       1.866127      1.255865      0.753504
  C      -0.308584     -1.634367      0.609037
  C      -1.741542      1.400263      0.379984
  O      -0.795105      4.932167     -2.494759
  O       2.960646      1.638992      0.969853
  O      -0.633823     -2.581881      1.201055
  O      -2.824324      1.857094      0.412604
  C      -1.342959      1.769637     -4.477908
  C      -1.703623     -1.434539      4.580222
  O      -1.470330      2.904937     -4.615388
  O      -1.770571     -2.468055      4.082222
