!B3LYP DEF2-SVP OPT FREQ
* XYZ 0 1
C         -0.81589       -0.51571       -0.02512
C          0.30690        0.49327       -0.06114
H         -0.42809       -1.56713       -0.28060
H         -1.26914       -0.51520        1.06962
H         -1.64631       -0.14518       -0.75104
O          0.16587        1.68279       -0.21470
O          1.51380       -0.07303        0.21899
H          2.16801        0.64625        0.13143
*