8
Coordinates from ORCA-job test E -228.789976928701
  C      -0.815890     -0.515710     -0.025120
  C       0.306900      0.493270     -0.061140
  H      -0.428090     -1.567130     -0.280600
  H      -1.269140     -0.515200      1.069620
  H      -1.646310     -0.145180     -0.751040
  O       0.165870      1.682790     -0.214700
  O       1.513800     -0.073030      0.218990
  H       2.168010      0.646250      0.131430
8
Coordinates from ORCA-job test E -228.798065883211
  C      -0.821277     -0.514060     -0.016207
  C       0.299009      0.497172     -0.026615
  H      -0.458598     -1.520096     -0.262897
  H      -1.256703     -0.530110      0.996234
  H      -1.604410     -0.173987     -0.705944
  O       0.170897      1.678038     -0.230272
  O       1.506747     -0.075046      0.199624
  H       2.159484      0.644150      0.133518
8
Coordinates from ORCA-job test E -228.797995402133
  C      -0.820868     -0.512540     -0.020009
  C       0.305411      0.491101     -0.077275
  H      -0.476787     -1.519491     -0.273530
  H      -1.221185     -0.526767      1.002293
  H      -1.623115     -0.180494     -0.684763
  O       0.174730      1.678203     -0.236876
  O       1.503873     -0.074517      0.192343
  H       2.153090      0.650565      0.185258
8
Coordinates from ORCA-job test E -228.798311420651
  C      -0.821089     -0.510937     -0.016907
  C       0.303526      0.495480     -0.054934
  H      -0.471629     -1.518905     -0.275735
  H      -1.232450     -0.535227      1.006956
  H      -1.621420     -0.177673     -0.691329
  O       0.176928      1.678415     -0.247255
  O       1.504834     -0.074059      0.189741
  H       2.156451      0.648967      0.176902
8
Coordinates from ORCA-job test E -228.798333915158
  C      -0.821109     -0.509237     -0.016455
  C       0.303462      0.496542     -0.054896
  H      -0.473518     -1.516573     -0.281441
  H      -1.227015     -0.540621      1.008361
  H      -1.624494     -0.177171     -0.687082
  O       0.178169      1.678242     -0.256389
  O       1.502920     -0.073032      0.194892
  H       2.156735      0.647909      0.180451
8
Coordinates from ORCA-job test E -228.798375855865
  C      -0.821346     -0.504952     -0.016161
  C       0.303897      0.498410     -0.060043
  H      -0.480578     -1.509457     -0.302643
  H      -1.206688     -0.558755      1.015401
  H      -1.637109     -0.172464     -0.670830
  O       0.182747      1.676010     -0.288157
  O       1.497369     -0.069082      0.214941
  H       2.156859      0.646349      0.194931
8
Coordinates from ORCA-job test E -228.798416708914
  C      -0.822064     -0.501518     -0.016290
  C       0.304477      0.499057     -0.068183
  H      -0.489656     -1.501359     -0.330021
  H      -1.180257     -0.581478      1.022989
  H      -1.652981     -0.162390     -0.647463
  O       0.189256      1.670524     -0.329200
  O       1.491063     -0.063642      0.242003
  H       2.155312      0.646866      0.213605
8
Coordinates from ORCA-job test E -228.798500086372
  C      -0.823804     -0.497045     -0.016574
  C       0.305750      0.498150     -0.084503
  H      -0.508633     -1.485359     -0.383153
  H      -1.128811     -0.626139      1.034624
  H      -1.681531     -0.138461     -0.598149
  O       0.204297      1.654719     -0.409680
  O       1.478483     -0.051392      0.294913
  H       2.149398      0.651587      0.249964
8
Coordinates from ORCA-job test E -228.798589301562
  C      -0.825913     -0.494894     -0.016374
  C       0.306979      0.495063     -0.099601
  H      -0.528339     -1.468519     -0.434902
  H      -1.079683     -0.670739      1.041782
  H      -1.705600     -0.110857     -0.545958
  O       0.222110      1.632854     -0.488373
  O       1.465144     -0.036958      0.347389
  H       2.140454      0.660109      0.283477
8
Coordinates from ORCA-job test E -228.798657309745
  C      -0.828571     -0.495753     -0.014934
  C       0.307583      0.490108     -0.110861
  H      -0.546481     -1.449984     -0.485941
  H      -1.036308     -0.715120      1.045232
  H      -1.723430     -0.079345     -0.492070
  O       0.242680      1.604351     -0.564378
  O       1.451194     -0.020342      0.399976
  H       2.128484      0.672145      0.310415
8
Coordinates from ORCA-job test E -228.798667253474
  C      -0.829332     -0.495163     -0.012997
  C       0.308435      0.488593     -0.114229
  H      -0.556728     -1.440174     -0.508256
  H      -1.018341     -0.734741      1.045825
  H      -1.730336     -0.068904     -0.469262
  O       0.252300      1.590988     -0.597228
  O       1.444856     -0.011855      0.421396
  H       2.124298      0.677315      0.322191
8
Coordinates from ORCA-job test E -228.798671883418
  C      -0.829427     -0.496299     -0.011387
  C       0.308481      0.488159     -0.111485
  H      -0.555706     -1.439060     -0.510200
  H      -1.022013     -0.734768      1.046614
  H      -1.728658     -0.068180     -0.469982
  O       0.252234      1.589466     -0.597305
  O       1.445913     -0.011525      0.422234
  H       2.124325      0.678268      0.318951
8
Coordinates from ORCA-job test E -228.798673309690
  C      -0.829255     -0.495784     -0.010694
  C       0.309004      0.487937     -0.112090
  H      -0.557832     -1.437533     -0.512963
  H      -1.020086     -0.736851      1.046960
  H      -1.729347     -0.068164     -0.467873
  O       0.253035      1.588072     -0.600874
  O       1.445327     -0.010404      0.424138
  H       2.124305      0.678786      0.320836
8
Coordinates from ORCA-job test E -228.798673444550
  C      -0.829217     -0.495804     -0.010547
  C       0.309087      0.487807     -0.112192
  H      -0.557940     -1.437417     -0.513155
  H      -1.020269     -0.736943      1.047057
  H      -1.729209     -0.068107     -0.467906
  O       0.252893      1.587962     -0.600880
  O       1.445386     -0.010251      0.424376
  H       2.124418      0.678812      0.320686
