!B3LYP def2-SVP OPT FREQ

* xyz +1 1 
Re        -0.33696        0.33242        0.02523
C          1.72919        0.29927        0.03715
C         -0.30343        2.39759        0.09012
C         -2.40320        0.36611        0.01334
C         -0.37059       -1.73282       -0.03968
O         -0.28500        3.52495        0.12495
O          2.85711        0.28147        0.04356
O         -0.38910       -2.86010       -0.07456
O         -3.53097        0.38451        0.00694
C         -0.32353        0.39914       -2.04012
C         -0.35033        0.26514        2.09061
O         -0.31605        0.43602       -3.16753
O         -0.35771        0.22772        3.21795
*